data/nesta/nesta_case2383wp_mp.m
%%%%%%%%%%%%%%%%%%%%%%%%%%%%%%%%%%%%%%%%%%%%%%%%%%%%%%%%%%%%%%%%%%%%%%%%%%%
%%%%                                                                  %%%%%
%%%%      NICTA Energy System Test Case Archive (NESTA) - v0.1.5      %%%%%
%%%%              Optimal Power Flow - Typical Operation              %%%%%
%%%%                       30 - October - 2014                        %%%%%
%%%%                                                                  %%%%%
%%%%%%%%%%%%%%%%%%%%%%%%%%%%%%%%%%%%%%%%%%%%%%%%%%%%%%%%%%%%%%%%%%%%%%%%%%%
%
%   Power flow data for Polish system - winter 1999-2000 peak.
%
%   This case represents the Polish 400, 220 and 110 kV networks during
%   winter 1999-2000 peak conditions. It is part of the 7500+ bus
%   Europen UCTE system. To decrease the number of buses, the tie lines
%   to foreign networks were replaced by artificial load or generator
%   buses (180-186). Multiple generators at a bus have been aggregated.
%   Generators that are not centrally dispatchable in the Polish energy
%   market are given a cost of zero.
%
%   This data was graciously provided by, and is distributed with the
%   permission of, Roman Korab <roman.korab@polsl.pl>.
%
function mpc = nesta_case2383wp_mp
mpc.version = '2';
mpc.baseMVA = 100.0;

%% area data
%	area	refbus
mpc.areas = [
	1	 18;
];

%% bus data
%	bus_i	type	Pd	Qd	Gs	Bs	area	Vm	Va	baseKV	zone	Vmax	Vmin
mpc.bus = [
	1	 1	 0.0	 0.0	 0.0	 0.0	 1	     1.0946	    -1.4948	 220.0	 1	     1.1100	     0.9500;
	2	 1	 0.0	 0.0	 0.0	 0.0	 1	     1.0854	    -1.0101	 220.0	 1	     1.1100	     0.9500;
	3	 1	 0.0	 0.0	 0.0	 0.0	 1	     1.0746	   -26.2082	 220.0	 1	     1.1100	     0.9500;
	4	 1	 0.0	 0.0	 0.0	 0.0	 1	     1.0714	    -8.5165	 220.0	 1	     1.1100	     0.9500;
	5	 1	 0.0	 0.0	 0.0	 0.0	 1	     1.0665	   -18.9975	 220.0	 1	     1.1100	     0.9500;
	6	 1	 0.0	 0.0	 0.0	 0.0	 1	     1.0236	   -13.8223	 400.0	 1	     1.0500	     0.9500;
	7	 1	 0.0	 0.0	 0.0	 0.0	 1	     1.0598	   -21.4437	 220.0	 1	     1.1100	     0.9500;
	8	 1	 0.0	 0.0	 0.0	 0.0	 1	     1.0275	   -10.3803	 400.0	 1	     1.0500	     0.9500;
	9	 1	 0.0	 0.0	 0.0	 0.0	 1	     1.0357	   -16.8761	 400.0	 1	     1.0500	     0.9500;
	10	 2	 12.23	 9.0	 0.0	 0.0	 1	     1.1082	   -20.6499	 220.0	 1	     1.1100	     0.9500;
	11	 1	 0.0	 0.0	 0.0	 0.0	 1	     1.0778	    -7.0641	 220.0	 1	     1.1100	     0.9500;
	12	 1	 0.0	 0.0	 0.0	 0.0	 1	     1.0668	   -23.9177	 220.0	 1	     1.1100	     0.9500;
	13	 1	 0.0	 0.0	 0.0	 0.0	 1	     1.0652	   -21.4897	 220.0	 1	     1.1100	     0.9500;
	14	 1	 0.0	 0.0	 0.0	 0.0	 1	     1.0664	    -5.0698	 220.0	 1	     1.1100	     0.9500;
	15	 1	 0.0	 0.0	 0.0	 0.0	 1	     1.0094	   -15.3188	 400.0	 1	     1.0500	     0.9500;
	16	 2	 54.88	 100.0	 0.0	 0.0	 1	     1.0974	    -0.9847	 220.0	 1	     1.1100	     0.9500;
	17	 2	 77.0	 150.0	 0.0	 0.0	 1	     1.0910	    -0.1484	 220.0	 1	     1.1100	     0.9500;
	18	 3	 153.0	 350.0	 0.0	 0.0	 1	     1.0337	     0.0000	 400.0	 1	     1.0500	     0.9500;
	19	 1	 0.0	 0.0	 0.0	 0.0	 1	     1.0659	   -22.6857	 220.0	 1	     1.1100	     0.9500;
	20	 1	 0.0	 0.0	 0.0	 0.0	 1	     1.0371	    -1.9369	 400.0	 1	     1.0500	     0.9500;
	21	 1	 0.0	 0.0	 0.0	 0.0	 1	     1.0594	   -21.8748	 220.0	 1	     1.1100	     0.9500;
	22	 1	 0.0	 0.0	 0.0	 0.0	 1	     1.0814	   -12.3887	 220.0	 1	     1.1100	     0.9500;
	23	 1	 0.0	 0.0	 0.0	 0.0	 1	     1.0624	   -16.6846	 220.0	 2	     1.1100	     0.9500;
	24	 1	 0.0	 0.0	 0.0	 0.0	 1	     1.0545	   -12.1019	 220.0	 2	     1.1100	     0.9500;
	25	 1	 0.0	 0.0	 0.0	 0.0	 1	     1.0566	   -10.6238	 220.0	 2	     1.1100	     0.9500;
	26	 1	 0.0	 0.0	 0.0	 0.0	 1	     1.0514	   -19.5201	 220.0	 2	     1.1100	     0.9500;
	27	 1	 0.0	 0.0	 0.0	 0.0	 1	     1.0659	   -10.2481	 220.0	 2	     1.1100	     0.9500;
	28	 1	 0.0	 0.0	 0.0	 0.0	 1	     1.0659	   -10.2431	 220.0	 2	     1.1100	     0.9500;
	29	 2	 25.98	 60.0	 0.0	 0.0	 1	     1.0967	   -15.3401	 220.0	 2	     1.1100	     0.9500;
	30	 2	 25.98	 60.0	 0.0	 0.0	 1	     1.0967	   -15.3408	 220.0	 2	     1.1100	     0.9500;
	31	 2	 20.98	 50.0	 0.0	 0.0	 1	     1.0214	   -10.7310	 400.0	 2	     1.0500	     0.9500;
	32	 1	 0.0	 0.0	 0.0	 0.0	 1	     1.0214	   -10.7702	 400.0	 2	     1.0500	     0.9500;
	33	 1	 0.0	 0.0	 0.0	 0.0	 1	     1.0603	   -11.0078	 220.0	 2	     1.1100	     0.9500;
	34	 1	 0.0	 0.0	 0.0	 0.0	 1	     1.0437	   -10.3139	 400.0	 2	     1.0500	     0.9500;
	35	 1	 0.0	 0.0	 0.0	 0.0	 1	     1.0438	   -10.3220	 400.0	 2	     1.0500	     0.9500;
	36	 1	 0.0	 0.0	 0.0	 0.0	 1	     1.0036	   -14.0199	 400.0	 2	     1.0500	     0.9500;
	37	 1	 0.0	 0.0	 0.0	 0.0	 1	     1.0618	   -17.6536	 220.0	 2	     1.1100	     0.9500;
	38	 1	 0.0	 0.0	 0.0	 0.0	 1	     1.0618	   -17.6525	 220.0	 2	     1.1100	     0.9500;
	39	 1	 0.0	 0.0	 0.0	 0.0	 1	     1.0154	    -9.4424	 400.0	 2	     1.0500	     0.9500;
	40	 1	 0.0	 0.0	 0.0	 0.0	 1	     1.0154	    -9.4321	 400.0	 2	     1.0500	     0.9500;
	41	 2	 11.99	 30.0	 0.0	 0.0	 1	     1.0609	    -8.4980	 220.0	 2	     1.1100	     0.9500;
	42	 2	 11.99	 30.0	 0.0	 0.0	 1	     1.0609	    -8.5105	 220.0	 2	     1.1100	     0.9500;
	43	 2	 23.98	 60.0	 0.0	 0.0	 1	     1.0229	    -6.9130	 400.0	 2	     1.0500	     0.9500;
	44	 2	 23.98	 60.0	 0.0	 0.0	 1	     1.0229	    -6.9258	 400.0	 2	     1.0500	     0.9500;
	45	 2	 159.84	 75.0	 0.0	 0.0	 1	     1.0792	   -16.2899	 220.0	 2	     1.1100	     0.9500;
	46	 1	 0.0	 0.0	 0.0	 0.0	 1	     1.0792	   -16.2883	 220.0	 2	     1.1100	     0.9500;
	47	 1	 0.0	 0.0	 0.0	 0.0	 1	     1.0601	   -10.8922	 220.0	 2	     1.1100	     0.9500;
	48	 1	 0.0	 0.0	 0.0	 0.0	 1	     1.0778	   -15.2935	 220.0	 2	     1.1100	     0.9500;
	49	 1	 0.0	 0.0	 0.0	 0.0	 1	     1.0778	   -15.2979	 220.0	 2	     1.1100	     0.9500;
	50	 1	 0.0	 0.0	 0.0	 0.0	 1	     1.0308	    -8.5192	 400.0	 2	     1.0500	     0.9500;
	51	 1	 0.0	 0.0	 0.0	 0.0	 1	     1.0309	    -8.5378	 400.0	 2	     1.0500	     0.9500;
	52	 1	 0.0	 0.0	 0.0	 0.0	 1	     1.0531	   -13.1269	 220.0	 2	     1.1100	     0.9500;
	53	 1	 0.0	 0.0	 0.0	 0.0	 1	     1.0551	   -13.0052	 220.0	 2	     1.1100	     0.9500;
	54	 1	 0.0	 0.0	 0.0	 0.0	 1	     1.0568	   -10.5536	 220.0	 2	     1.1100	     0.9500;
	55	 1	 0.0	 0.0	 0.0	 0.0	 1	     1.0667	   -16.7017	 220.0	 2	     1.1100	     0.9500;
	56	 1	 0.0	 0.0	 0.0	 0.0	 1	     1.0802	    -5.1255	 220.0	 3	     1.1100	     0.9500;
	57	 1	 22.98	 10.96	 0.0	 0.0	 1	     1.0788	    -7.2859	 220.0	 3	     1.1100	     0.9500;
	58	 1	 21.98	 5.79	 0.0	 0.0	 1	     1.0790	    -7.2859	 220.0	 3	     1.1100	     0.9500;
	59	 1	 0.0	 0.0	 0.0	 0.0	 1	     1.1054	     0.4668	 220.0	 3	     1.1100	     0.9500;
	60	 1	 0.0	 0.0	 0.0	 0.0	 1	     1.1034	    -3.8522	 220.0	 3	     1.1100	     0.9500;
	61	 1	 0.0	 0.0	 0.0	 0.0	 1	     1.1085	     2.0938	 220.0	 3	     1.1100	     0.9500;
	62	 1	 0.0	 0.0	 0.0	 0.0	 1	     1.1084	     2.0955	 220.0	 3	     1.1100	     0.9500;
	63	 2	 37.37	 52.69	 0.0	 0.0	 1	     1.1100	     0.8133	 220.0	 3	     1.1100	     0.9500;
	64	 2	 35.37	 55.32	 0.0	 0.0	 1	     1.1093	     0.6464	 220.0	 3	     1.1100	     0.9500;
	65	 1	 13.39	 2.02	 0.0	 0.0	 1	     1.1032	    -1.0285	 220.0	 3	     1.1100	     0.9500;
	66	 1	 0.0	 0.0	 0.0	 0.0	 1	     1.1003	    -8.6355	 220.0	 3	     1.1100	     0.9500;
	67	 2	 60.4	 92.1	 0.0	 0.0	 1	     1.0500	    -6.5573	 400.0	 3	     1.0500	     0.9500;
	68	 1	 0.0	 0.0	 0.0	 0.0	 1	     1.1002	    -6.9023	 220.0	 3	     1.1100	     0.9500;
	69	 1	 0.0	 0.0	 0.0	 0.0	 1	     1.1070	    -0.8382	 220.0	 3	     1.1100	     0.9500;
	70	 1	 0.0	 0.0	 0.0	 0.0	 1	     1.0849	    -4.3023	 220.0	 3	     1.1100	     0.9500;
	71	 1	 0.0	 0.0	 0.0	 0.0	 1	     1.0989	    -1.8371	 220.0	 3	     1.1100	     0.9500;
	72	 1	 0.0	 0.0	 0.0	 0.0	 1	     1.0989	    -1.8371	 220.0	 3	     1.1100	     0.9500;
	73	 1	 0.0	 0.0	 0.0	 0.0	 1	     1.0878	    -3.6331	 220.0	 3	     1.1100	     0.9500;
	74	 1	 0.0	 0.0	 0.0	 0.0	 1	     1.0849	    -4.5133	 220.0	 3	     1.1100	     0.9500;
	75	 1	 0.0	 0.0	 0.0	 0.0	 1	     1.0319	    -1.6723	 400.0	 3	     1.0500	     0.9500;
	76	 1	 0.0	 0.0	 0.0	 0.0	 1	     1.0319	    -1.6783	 400.0	 3	     1.0500	     0.9500;
	77	 1	 0.0	 0.0	 0.0	 0.0	 1	     1.0987	    -2.2673	 220.0	 3	     1.1100	     0.9500;
	78	 1	 0.0	 0.0	 0.0	 0.0	 1	     1.0966	    -4.9713	 220.0	 3	     1.1100	     0.9500;
	79	 1	 0.0	 0.0	 0.0	 0.0	 1	     1.0988	    -1.2768	 220.0	 3	     1.1100	     0.9500;
	80	 1	 0.0	 0.0	 0.0	 0.0	 1	     1.0795	    -7.2345	 220.0	 3	     1.1100	     0.9500;
	81	 1	 0.0	 0.0	 0.0	 0.0	 1	     1.0795	    -7.2342	 220.0	 3	     1.1100	     0.9500;
	82	 1	 0.0	 0.0	 0.0	 0.0	 1	     1.1039	     1.0128	 220.0	 3	     1.1100	     0.9500;
	83	 2	 15.99	 22.97	 0.0	 0.0	 1	     1.1090	    -0.8205	 220.0	 3	     1.1100	     0.9500;
	84	 2	 15.79	 22.27	 0.0	 0.0	 1	     1.1091	    -0.8218	 220.0	 3	     1.1100	     0.9500;
	85	 2	 9.99	 17.01	 0.0	 0.0	 1	     1.1017	    -2.2938	 220.0	 3	     1.1100	     0.9500;
	86	 2	 9.99	 16.66	 0.0	 0.0	 1	     1.1016	    -2.2923	 220.0	 3	     1.1100	     0.9500;
	87	 1	 11.09	 16.22	 0.0	 0.0	 1	     1.0894	    -3.1476	 220.0	 3	     1.1100	     0.9500;
	88	 1	 0.0	 0.0	 0.0	 0.0	 1	     1.0894	    -3.1480	 220.0	 3	     1.1100	     0.9500;
	89	 1	 0.0	 0.0	 0.0	 0.0	 1	     1.1001	    -1.2381	 220.0	 3	     1.1100	     0.9500;
	90	 1	 0.0	 0.0	 0.0	 0.0	 1	     1.1042	    -1.7979	 220.0	 3	     1.1100	     0.9500;
	91	 1	 0.0	 0.0	 0.0	 0.0	 1	     1.1026	    -0.6661	 220.0	 3	     1.1100	     0.9500;
	92	 1	 0.0	 0.0	 0.0	 0.0	 1	     1.0237	    -5.5065	 400.0	 3	     1.0500	     0.9500;
	93	 2	 9.99	 16.39	 0.0	 0.0	 1	     1.1056	    -0.2952	 220.0	 3	     1.1100	     0.9500;
	94	 1	 0.0	 0.0	 0.0	 0.0	 1	     1.1056	    -0.2968	 220.0	 3	     1.1100	     0.9500;
	95	 2	 6.89	 8.15	 0.0	 0.0	 1	     1.1075	    -0.4540	 220.0	 3	     1.1100	     0.9500;
	96	 1	 0.0	 0.0	 0.0	 0.0	 1	     1.1075	    -0.4584	 220.0	 3	     1.1100	     0.9500;
	97	 2	 8.69	 5.26	 0.0	 0.0	 1	     1.0967	    -4.8473	 220.0	 3	     1.1100	     0.9500;
	98	 1	 0.0	 0.0	 0.0	 0.0	 1	     1.0232	    -7.5544	 400.0	 3	     1.0500	     0.9500;
	99	 1	 0.0	 0.0	 0.0	 0.0	 1	     1.0233	    -7.5444	 400.0	 3	     1.0500	     0.9500;
	100	 1	 0.0	 0.0	 0.0	 0.0	 1	     1.0320	    -5.1585	 400.0	 3	     1.0500	     0.9500;
	101	 1	 0.0	 0.0	 0.0	 0.0	 1	     1.0320	    -5.1492	 400.0	 3	     1.0500	     0.9500;
	102	 1	 0.0	 0.0	 0.0	 0.0	 1	     1.1020	    -1.1475	 220.0	 3	     1.1100	     0.9500;
	103	 2	 18.09	 23.76	 0.0	 0.0	 1	     1.1067	    -1.9137	 220.0	 3	     1.1100	     0.9500;
	104	 2	 33.68	 46.11	 0.0	 0.0	 1	     1.1068	    -1.9078	 220.0	 3	     1.1100	     0.9500;
	105	 2	 33.78	 62.95	 0.0	 0.0	 1	     1.0167	    -4.8854	 400.0	 3	     1.0500	     0.9500;
	106	 1	 0.0	 0.0	 0.0	 0.0	 1	     1.0168	    -4.8991	 400.0	 3	     1.0500	     0.9500;
	107	 1	 0.0	 0.0	 0.0	 0.0	 1	     1.0836	    -4.5876	 220.0	 3	     1.1100	     0.9500;
	108	 1	 0.0	 0.0	 0.0	 0.0	 1	     1.0853	    -4.4169	 220.0	 3	     1.1100	     0.9500;
	109	 2	 1.0	 22.36	 0.0	 0.0	 1	     1.1100	     2.8144	 220.0	 3	     1.1100	     0.9500;
	110	 2	 1.0	 22.18	 0.0	 0.0	 1	     1.1100	     2.8159	 220.0	 3	     1.1100	     0.9500;
	111	 2	 26.49	 18.0	 0.0	 0.0	 1	     1.1066	   -14.3420	 220.0	 4	     1.1100	     0.9500;
	112	 1	 0.0	 0.0	 0.0	 0.0	 1	     1.1065	   -14.3359	 220.0	 4	     1.1100	     0.9500;
	113	 1	 0.0	 0.0	 0.0	 0.0	 1	     1.0622	   -26.8751	 220.0	 4	     1.1100	     0.9500;
	114	 1	 0.0	 0.0	 0.0	 0.0	 1	     1.0755	   -26.3378	 220.0	 4	     1.1100	     0.9500;
	115	 1	 0.0	 0.0	 0.0	 0.0	 1	     0.9834	   -20.2908	 400.0	 4	     1.0500	     0.9500;
	116	 1	 0.0	 0.0	 0.0	 0.0	 1	     0.9834	   -20.2812	 400.0	 4	     1.0500	     0.9500;
	117	 1	 0.0	 0.0	 0.0	 0.0	 1	     1.0727	   -30.0130	 220.0	 4	     1.1100	     0.9500;
	118	 1	 0.0	 0.0	 0.0	 0.0	 1	     1.0672	   -38.7245	 220.0	 4	     1.1100	     0.9500;
	119	 1	 0.0	 0.0	 0.0	 0.0	 1	     1.0672	   -38.7245	 220.0	 4	     1.1100	     0.9500;
	120	 1	 0.0	 0.0	 0.0	 0.0	 1	     1.0513	   -37.1907	 220.0	 4	     1.1100	     0.9500;
	121	 1	 0.0	 0.0	 0.0	 0.0	 1	     1.0700	   -26.9198	 220.0	 4	     1.1100	     0.9500;
	122	 1	 0.0	 0.0	 0.0	 0.0	 1	     1.0700	   -26.9198	 220.0	 4	     1.1100	     0.9500;
	123	 2	 5.5	 7.0	 0.0	 0.0	 1	     1.1097	   -19.4003	 220.0	 4	     1.1100	     0.9500;
	124	 2	 8.79	 17.0	 0.0	 0.0	 1	     1.1097	   -19.3947	 220.0	 4	     1.1100	     0.9500;
	125	 2	 35.7	 18.3	 0.0	 0.0	 1	     1.1062	   -35.5758	 220.0	 4	     1.1100	     0.9500;
	126	 1	 25.28	 15.9	 0.0	 0.0	 1	     1.1061	   -35.5631	 220.0	 4	     1.1100	     0.9500;
	127	 2	 25.71	 15.3	 0.0	 0.0	 1	     1.0330	   -27.7607	 400.0	 4	     1.0500	     0.9500;
	128	 1	 0.0	 0.0	 0.0	 0.0	 1	     1.0329	   -27.7688	 400.0	 4	     1.0500	     0.9500;
	129	 1	 0.0	 0.0	 0.0	 0.0	 1	     1.0452	   -32.5781	 220.0	 4	     1.1100	     0.9500;
	130	 1	 0.0	 0.0	 0.0	 0.0	 1	     1.0346	   -33.9541	 220.0	 4	     1.1100	     0.9500;
	131	 2	 68.67	 70.0	 0.0	 0.0	 1	     1.0993	   -24.0818	 220.0	 4	     1.1100	     0.9500;
	132	 2	 33.0	 45.0	 0.0	 0.0	 1	     1.0994	   -24.0968	 220.0	 4	     1.1100	     0.9500;
	133	 1	 0.0	 0.0	 0.0	 0.0	 1	     0.9953	   -19.6107	 400.0	 4	     1.0500	     0.9500;
	134	 1	 0.0	 0.0	 0.0	 0.0	 1	     0.9953	   -19.6094	 400.0	 4	     1.0500	     0.9500;
	135	 1	 0.0	 0.0	 0.0	 0.0	 1	     1.0672	   -38.6524	 220.0	 4	     1.1100	     0.9500;
	136	 1	 0.0	 0.0	 0.0	 0.0	 1	     1.0672	   -38.6524	 220.0	 4	     1.1100	     0.9500;
	137	 1	 0.0	 0.0	 0.0	 0.0	 1	     1.0000	   -16.6492	 400.0	 4	     1.0500	     0.9500;
	138	 1	 0.0	 0.0	 0.0	 0.0	 1	     1.0000	   -16.6492	 400.0	 4	     1.0500	     0.9500;
	139	 2	 33.2	 22.6	 0.0	 0.0	 1	     1.1100	   -19.6947	 220.0	 4	     1.1100	     0.9500;
	140	 2	 29.23	 19.6	 0.0	 0.0	 1	     1.1100	   -19.7021	 220.0	 4	     1.1100	     0.9500;
	141	 1	 0.0	 0.0	 0.0	 0.0	 1	     1.0487	   -35.3113	 220.0	 4	     1.1100	     0.9500;
	142	 1	 0.0	 0.0	 0.0	 0.0	 1	     1.0641	   -38.9290	 220.0	 4	     1.1100	     0.9500;
	143	 1	 0.0	 0.0	 0.0	 0.0	 1	     1.0713	   -31.5007	 220.0	 4	     1.1100	     0.9500;
	144	 1	 0.0	 0.0	 0.0	 0.0	 1	     1.0713	   -31.4998	 220.0	 4	     1.1100	     0.9500;
	145	 1	 0.0	 0.0	 0.0	 0.0	 1	     0.9766	   -31.1792	 400.0	 4	     1.0500	     0.9500;
	146	 1	 0.0	 0.0	 0.0	 0.0	 1	     0.9766	   -31.1792	 400.0	 4	     1.0500	     0.9500;
	147	 1	 0.0	 0.0	 0.0	 0.0	 1	     1.0443	   -30.6044	 220.0	 4	     1.1100	     0.9500;
	148	 1	 0.0	 0.0	 0.0	 0.0	 1	     1.0444	   -30.5987	 220.0	 4	     1.1100	     0.9500;
	149	 1	 0.0	 0.0	 0.0	 0.0	 1	     1.0679	   -32.1971	 220.0	 4	     1.1100	     0.9500;
	150	 1	 0.0	 0.0	 0.0	 0.0	 1	     1.0651	   -26.0520	 220.0	 4	     1.1100	     0.9500;
	151	 1	 0.0	 0.0	 0.0	 0.0	 1	     1.0651	   -26.0596	 220.0	 4	     1.1100	     0.9500;
	152	 1	 0.0	 0.0	 0.0	 0.0	 1	     1.0585	   -22.4711	 220.0	 4	     1.1100	     0.9500;
	153	 1	 0.0	 0.0	 0.0	 0.0	 1	     1.0585	   -22.4711	 220.0	 4	     1.1100	     0.9500;
	154	 1	 0.0	 0.0	 0.0	 0.0	 1	     1.0281	   -32.3988	 220.0	 4	     1.1100	     0.9500;
	155	 1	 0.0	 0.0	 0.0	 0.0	 1	     1.0547	   -27.8262	 220.0	 5	     1.1100	     0.9500;
	156	 1	 0.0	 0.0	 0.0	 0.0	 1	     1.1100	   -30.1996	 220.0	 5	     1.1100	     0.9500;
	157	 1	 0.0	 0.0	 0.0	 0.0	 1	     1.0250	   -28.3062	 400.0	 5	     1.0500	     0.9500;
	158	 1	 0.0	 0.0	 0.0	 0.0	 1	     1.0249	   -28.2991	 400.0	 5	     1.0500	     0.9500;
	159	 1	 0.0	 0.0	 0.0	 0.0	 1	     1.0282	   -25.1516	 400.0	 5	     1.0500	     0.9500;
	160	 1	 0.0	 0.0	 0.0	 0.0	 1	     1.0283	   -25.1595	 400.0	 5	     1.0500	     0.9500;
	161	 1	 0.0	 0.0	 0.0	 0.0	 1	     1.0552	   -31.0949	 220.0	 5	     1.1100	     0.9500;
	162	 1	 0.0	 0.0	 0.0	 0.0	 1	     1.0552	   -31.0959	 220.0	 5	     1.1100	     0.9500;
	163	 1	 0.0	 0.0	 0.0	 0.0	 1	     1.0871	   -28.6132	 220.0	 5	     1.1100	     0.9500;
	164	 1	 0.0	 0.0	 0.0	 0.0	 1	     1.0871	   -28.6146	 220.0	 5	     1.1100	     0.9500;
	165	 1	 0.0	 0.0	 0.0	 0.0	 1	     1.0015	   -22.6064	 400.0	 5	     1.0500	     0.9500;
	166	 1	 0.0	 0.0	 0.0	 0.0	 1	     1.0669	   -27.0630	 220.0	 5	     1.1100	     0.9500;
	167	 1	 0.0	 0.0	 0.0	 0.0	 1	     1.0669	   -27.0610	 220.0	 5	     1.1100	     0.9500;
	168	 1	 0.0	 0.0	 0.0	 0.0	 1	     1.0301	   -26.8939	 400.0	 5	     1.0500	     0.9500;
	169	 1	 0.0	 0.0	 0.0	 0.0	 1	     1.0301	   -26.9008	 400.0	 5	     1.0500	     0.9500;
	170	 1	 0.0	 0.0	 0.0	 0.0	 1	     1.0558	   -27.9407	 220.0	 5	     1.1100	     0.9500;
	171	 1	 0.0	 0.0	 0.0	 0.0	 1	     1.0559	   -27.9373	 220.0	 5	     1.1100	     0.9500;
	172	 1	 0.0	 0.0	 0.0	 0.0	 1	     1.0622	   -29.1196	 220.0	 5	     1.1100	     0.9500;
	173	 1	 0.0	 0.0	 0.0	 0.0	 1	     1.0622	   -29.1179	 220.0	 5	     1.1100	     0.9500;
	174	 1	 0.0	 0.0	 0.0	 0.0	 1	     1.0600	   -26.9019	 220.0	 5	     1.1100	     0.9500;
	175	 1	 0.0	 0.0	 0.0	 0.0	 1	     1.0599	   -26.9091	 220.0	 5	     1.1100	     0.9500;
	176	 2	 0.0	 40.0	 0.0	 0.0	 1	     1.0313	   -23.9182	 400.0	 5	     1.0500	     0.9500;
	177	 2	 0.0	 40.0	 0.0	 0.0	 1	     1.0315	   -23.9154	 400.0	 5	     1.0500	     0.9500;
	178	 1	 0.0	 0.0	 0.0	 0.0	 1	     1.0784	   -32.2778	 220.0	 5	     1.1100	     0.9500;
	179	 1	 0.0	 0.0	 0.0	 0.0	 1	     1.0785	   -32.2730	 220.0	 5	     1.1100	     0.9500;
	180	 2	 339.85	 49.6	 0.0	 0.0	 2	     1.0088	    -7.6785	 400.0	 6	     1.0500	     0.9500;
	181	 2	 0.0	 0.0	 0.0	 0.0	 3	     1.1072	    -9.8296	 220.0	 6	     1.1100	     0.9500;
	182	 2	 0.0	 0.0	 0.0	 0.0	 5	     0.9967	   -19.3151	 400.0	 6	     1.0500	     0.9500;
	183	 1	 150.0	 0.0	 0.0	 0.0	 3	     1.0500	   -11.2496	 400.0	 6	     1.0500	     0.9500;
	184	 2	 317.34	 50.3	 0.0	 0.0	 2	     1.0968	    -4.7574	 220.0	 6	     1.1100	     0.9500;
	185	 2	 362.43	 36.7	 0.0	 0.0	 2	     1.0080	    -8.4602	 400.0	 6	     1.0500	     0.9500;
	186	 2	 33.33	 1.0	 0.0	 0.0	 5	     1.1085	   -35.7076	 220.0	 6	     1.1100	     0.9500;
	187	 1	 7.12	 1.5	 0.0	 0.0	 1	     1.0661	   -25.6963	 110.0	 1	     1.1200	     0.9500;
	188	 1	 7.63	 1.0	 0.0	 0.0	 1	     1.0418	   -32.2621	 110.0	 1	     1.1200	     0.9500;
	189	 1	 9.77	 8.7	 0.0	 0.0	 1	     0.9972	   -29.5143	 110.0	 1	     1.1200	     0.9500;
	190	 1	 6.12	 1.5	 0.0	 0.0	 1	     1.1039	    -5.6845	 110.0	 1	     1.1200	     0.9500;
	191	 1	 6.12	 1.6	 0.0	 0.0	 1	     1.0850	    -6.8882	 110.0	 1	     1.1200	     0.9500;
	192	 2	 30.56	 12.0	 0.0	 0.0	 1	     1.1200	   -22.0811	 110.0	 1	     1.1200	     0.9500;
	193	 1	 15.28	 3.0	 0.0	 0.0	 1	     1.1189	   -21.9547	 110.0	 1	     1.1200	     0.9500;
	194	 1	 0.0	 0.0	 0.0	 0.0	 1	     1.1186	   -22.2477	 110.0	 1	     1.1200	     0.9500;
	195	 1	 8.14	 2.0	 0.0	 0.0	 1	     1.0830	   -26.7334	 110.0	 1	     1.1200	     0.9500;
	196	 2	 6.92	 1.5	 0.0	 0.0	 1	     1.0192	   -33.4042	 110.0	 1	     1.1200	     0.9500;
	197	 1	 6.92	 1.5	 0.0	 0.0	 1	     1.0731	   -15.4030	 110.0	 1	     1.1200	     0.9500;
	198	 2	 12.32	 1.7	 0.0	 0.0	 1	     1.0753	   -26.8935	 110.0	 1	     1.1200	     0.9500;
	199	 1	 1.43	 0.5	 0.0	 0.0	 1	     1.1078	    -8.2696	 110.0	 1	     1.1200	     0.9500;
	200	 1	 1.08	 0.5	 0.0	 0.0	 1	     1.0976	   -25.9499	 110.0	 1	     1.1200	     0.9500;
...
];

%% generator data
%	bus	Pg	Qg	Qmax	Qmin	Vg	mBase	status	Pmax	Pmin	Pc1	Pc2	Qc1min	Qc1max	Qc2min	Qc2max	ramp_agc	ramp_10	ramp_30	ramp_q	apf
mpc.gen = [
	10	 400.0	 120.0	 120.0	 0.0	 1.0	 168.0	 1	 400.0	 70.0	 0.0	 0.0	 0.0	 0.0	 0.0	 0.0	 0.0	 0.0	 0.0	 0.0	 0.0;
	16	 720.0	 160.532	 440.0	 -40.0	 1.0	 823.0	 1	 720.0	 120.0	 0.0	 0.0	 0.0	 0.0	 0.0	 0.0	 0.0	 0.0	 0.0	 0.0	 0.0;
	17	 1080.0	 212.82	 660.0	 -60.0	 1.0	 1234.0	 1	 1080.0	 120.0	 0.0	 0.0	 0.0	 0.0	 0.0	 0.0	 0.0	 0.0	 0.0	 0.0	 0.0;
	18	 2520.0	 160.59	 1540.0	 -140.0	 1.0	 2879.0	 1	 2520.0	 120.0	 0.0	 0.0	 0.0	 0.0	 0.0	 0.0	 0.0	 0.0	 0.0	 0.0	 0.0;
	29	 70.0	 240.0	 240.0	 0.0	 1.0	 511.0	 1	 400.0	 70.0	 0.0	 0.0	 0.0	 0.0	 0.0	 0.0	 0.0	 0.0	 0.0	 0.0	 0.0;
	30	 70.0	 129.949	 240.0	 0.0	 1.0	 511.0	 1	 800.0	 70.0	 0.0	 0.0	 0.0	 0.0	 0.0	 0.0	 0.0	 0.0	 0.0	 0.0	 0.0;
	31	 1000.0	 0.0	 350.0	 0.0	 1.0	 420.0	 1	 1000.0	 150.0	 0.0	 0.0	 0.0	 0.0	 0.0	 0.0	 0.0	 0.0	 0.0	 0.0	 0.0;
	41	 200.0	 0.0	 120.0	 0.0	 1.0	 241.0	 1	 200.0	 70.0	 0.0	 0.0	 0.0	 0.0	 0.0	 0.0	 0.0	 0.0	 0.0	 0.0	 0.0;
	42	 70.0	 0.0	 120.0	 0.0	 1.0	 241.0	 1	 410.0	 70.0	 0.0	 0.0	 0.0	 0.0	 0.0	 0.0	 0.0	 0.0	 0.0	 0.0	 0.0;
	43	 410.0	 0.0	 240.0	 0.0	 1.0	 482.0	 1	 410.0	 70.0	 0.0	 0.0	 0.0	 0.0	 0.0	 0.0	 0.0	 0.0	 0.0	 0.0	 0.0;
	44	 410.0	 0.0	 240.0	 0.0	 1.0	 482.0	 1	 410.0	 70.0	 0.0	 0.0	 0.0	 0.0	 0.0	 0.0	 0.0	 0.0	 0.0	 0.0	 0.0;
	45	 42.2	 21.0	 21.0	 0.0	 1.0	 49.0	 1	 42.2	 39.14	 0.0	 0.0	 0.0	 0.0	 0.0	 0.0	 0.0	 0.0	 0.0	 0.0	 0.0;
	63	 650.0	 103.63	 302.0	 0.0	 1.0	 473.0	 1	 650.0	 145.0	 0.0	 0.0	 0.0	 0.0	 0.0	 0.0	 0.0	 0.0	 0.0	 0.0	 0.0;
	64	 450.0	 78.8702	 311.0	 2.0	 1.0	 475.0	 1	 450.0	 145.0	 0.0	 0.0	 0.0	 0.0	 0.0	 0.0	 0.0	 0.0	 0.0	 0.0	 0.0;
	67	 750.0	 413.726	 449.0	 0.0	 1.0	 864.0	 1	 750.0	 220.0	 0.0	 0.0	 0.0	 0.0	 0.0	 0.0	 0.0	 0.0	 0.0	 0.0	 0.0;
	83	 225.0	 -89.0	 190.0	 -89.0	 1.0	 239.0	 1	 225.0	 140.0	 0.0	 0.0	 0.0	 0.0	 0.0	 0.0	 0.0	 0.0	 0.0	 0.0	 0.0;
	84	 225.0	 167.231	 190.0	 -89.0	 1.0	 251.0	 1	 225.0	 140.0	 0.0	 0.0	 0.0	 0.0	 0.0	 0.0	 0.0	 0.0	 0.0	 0.0	 0.0;
	85	 120.0	 119.623	 125.0	 -50.0	 1.0	 133.0	 1	 120.0	 40.0	 0.0	 0.0	 0.0	 0.0	 0.0	 0.0	 0.0	 0.0	 0.0	 0.0	 0.0;
	86	 120.0	 -6.01871	 125.0	 -50.0	 1.0	 133.0	 1	 120.0	 40.0	 0.0	 0.0	 0.0	 0.0	 0.0	 0.0	 0.0	 0.0	 0.0	 0.0	 0.0;
	93	 120.0	 50.5085	 90.0	 5.0	 1.0	 123.0	 1	 120.0	 80.0	 0.0	 0.0	 0.0	 0.0	 0.0	 0.0	 0.0	 0.0	 0.0	 0.0	 0.0;
	95	 110.0	 27.0	 68.0	 27.0	 1.0	 105.0	 1	 110.0	 50.0	 0.0	 0.0	 0.0	 0.0	 0.0	 0.0	 0.0	 0.0	 0.0	 0.0	 0.0;
	97	 87.6	 41.8528	 68.0	 27.0	 1.0	 105.0	 1	 87.6	 83.26	 0.0	 0.0	 0.0	 0.0	 0.0	 0.0	 0.0	 0.0	 0.0	 0.0	 0.0;
	103	 160.0	 68.7599	 177.0	 -82.0	 1.0	 239.0	 1	 400.0	 160.0	 0.0	 0.0	 0.0	 0.0	 0.0	 0.0	 0.0	 0.0	 0.0	 0.0	 0.0;
	104	 225.0	 97.3097	 379.0	 -177.0	 1.0	 490.0	 1	 225.0	 140.0	 0.0	 0.0	 0.0	 0.0	 0.0	 0.0	 0.0	 0.0	 0.0	 0.0	 0.0;
	105	 430.0	 -165.0	 353.0	 -165.0	 1.0	 502.0	 1	 430.0	 160.0	 0.0	 0.0	 0.0	 0.0	 0.0	 0.0	 0.0	 0.0	 0.0	 0.0	 0.0;
	109	 250.0	 17.6233	 65.0	 0.0	 1.0	 277.0	 1	 250.0	 80.0	 0.0	 0.0	 0.0	 0.0	 0.0	 0.0	 0.0	 0.0	 0.0	 0.0	 0.0;
	110	 250.0	 17.7852	 65.0	 0.0	 1.0	 280.0	 1	 250.0	 80.0	 0.0	 0.0	 0.0	 0.0	 0.0	 0.0	 0.0	 0.0	 0.0	 0.0	 0.0;
	111	 360.0	 126.446	 270.0	 0.0	 1.0	 401.0	 1	 360.0	 40.0	 0.0	 0.0	 0.0	 0.0	 0.0	 0.0	 0.0	 0.0	 0.0	 0.0	 0.0;
	123	 20.0	 40.0	 40.0	 0.0	 1.0	 98.0	 1	 110.0	 20.0	 0.0	 0.0	 0.0	 0.0	 0.0	 0.0	 0.0	 0.0	 0.0	 0.0	 0.0;
	124	 125.0	 90.0	 90.0	 0.0	 1.0	 132.0	 1	 125.0	 45.0	 0.0	 0.0	 0.0	 0.0	 0.0	 0.0	 0.0	 0.0	 0.0	 0.0	 0.0;
	125	 70.0	 360.0	 360.0	 0.0	 1.0	 654.0	 1	 860.0	 70.0	 0.0	 0.0	 0.0	 0.0	 0.0	 0.0	 0.0	 0.0	 0.0	 0.0	 0.0;
	127	 690.0	 0.0	 360.0	 0.0	 1.0	 540.0	 1	 690.0	 70.0	 0.0	 0.0	 0.0	 0.0	 0.0	 0.0	 0.0	 0.0	 0.0	 0.0	 0.0;
	131	 645.377	 52.6305	 360.0	 0.0	 1.0	 696.0	 1	 1060.0	 70.0	 0.0	 0.0	 0.0	 0.0	 0.0	 0.0	 0.0	 0.0	 0.0	 0.0	 0.0;
	132	 70.0	 286.7	 480.0	 0.0	 1.0	 732.0	 1	 600.0	 70.0	 0.0	 0.0	 0.0	 0.0	 0.0	 0.0	 0.0	 0.0	 0.0	 0.0	 0.0;
	139	 408.67	 147.319	 360.0	 0.0	 1.0	 714.0	 1	 600.0	 70.0	 0.0	 0.0	 0.0	 0.0	 0.0	 0.0	 0.0	 0.0	 0.0	 0.0	 0.0;
	140	 200.0	 120.0	 120.0	 0.0	 1.0	 240.0	 1	 200.0	 70.0	 0.0	 0.0	 0.0	 0.0	 0.0	 0.0	 0.0	 0.0	 0.0	 0.0	 0.0;
	176	 600.0	 -120.0	 220.0	 -120.0	 1.0	 430.0	 1	 600.0	 70.0	 0.0	 0.0	 0.0	 0.0	 0.0	 0.0	 0.0	 0.0	 0.0	 0.0	 0.0;
	177	 200.0	 201.005	 220.0	 -120.0	 1.0	 430.0	 1	 200.0	 70.0	 0.0	 0.0	 0.0	 0.0	 0.0	 0.0	 0.0	 0.0	 0.0	 0.0	 0.0;
	180	 0.0	 16.8544	 99999.0	 -99999.0	 1.0	 7485.0	 1	 0.0	 0.0	 0.0	 0.0	 0.0	 0.0	 0.0	 0.0	 0.0	 0.0	 0.0	 0.0	 0.0;
	181	 175.0	 26.1506	 99999.0	 -99999.0	 1.0	 210.0	 1	 175.0	 174.0	 0.0	 0.0	 0.0	 0.0	 0.0	 0.0	 0.0	 0.0	 0.0	 0.0	 0.0;
	182	 307.59	 48.5395	 99999.0	 -99999.0	 1.0	 13465.0	 1	 307.59	 306.0	 0.0	 0.0	 0.0	 0.0	 0.0	 0.0	 0.0	 0.0	 0.0	 0.0	 0.0;
	184	 0.0	 69.5787	 99999.0	 -99999.0	 1.0	 8353.0	 1	 0.0	 0.0	 0.0	 0.0	 0.0	 0.0	 0.0	 0.0	 0.0	 0.0	 0.0	 0.0	 0.0;
	185	 0.0	 12.233	 99999.0	 -99999.0	 1.0	 14254.0	 1	 0.0	 0.0	 0.0	 0.0	 0.0	 0.0	 0.0	 0.0	 0.0	 0.0	 0.0	 0.0	 0.0;
	186	 0.0	 32.0974	 99999.0	 -99999.0	 1.0	 7401.0	 1	 0.0	 0.0	 0.0	 0.0	 0.0	 0.0	 0.0	 0.0	 0.0	 0.0	 0.0	 0.0	 0.0;
	192	 95.0	 28.3494	 50.0	 0.0	 1.0	 114.0	 1	 95.0	 90.25	 0.0	 0.0	 0.0	 0.0	 0.0	 0.0	 0.0	 0.0	 0.0	 0.0	 0.0;
	196	 0.9	 1.0	 1.0	 0.0	 1.0	 1.0	 1	 0.9	 0.86	 0.0	 0.0	 0.0	 0.0	 0.0	 0.0	 0.0	 0.0	 0.0	 0.0	 0.0;
	198	 0.8	 1.0	 1.0	 0.0	 1.0	 1.0	 1	 0.8	 0.76	 0.0	 0.0	 0.0	 0.0	 0.0	 0.0	 0.0	 0.0	 0.0	 0.0	 0.0;
	205	 15.0	 6.20319	 10.0	 0.0	 1.0	 18.0	 1	 15.0	 14.25	 0.0	 0.0	 0.0	 0.0	 0.0	 0.0	 0.0	 0.0	 0.0	 0.0	 0.0;
	213	 11.0	 8.0	 8.0	 0.0	 1.0	 13.0	 1	 11.0	 10.45	 0.0	 0.0	 0.0	 0.0	 0.0	 0.0	 0.0	 0.0	 0.0	 0.0	 0.0;
	264	 2.5	 2.0	 2.0	 0.0	 1.0	 3.0	 1	 2.5	 2.38	 0.0	 0.0	 0.0	 0.0	 0.0	 0.0	 0.0	 0.0	 0.0	 0.0	 0.0;
	269	 6.0	 5.0	 5.0	 0.0	 1.0	 7.0	 1	 6.0	 5.7	 0.0	 0.0	 0.0	 0.0	 0.0	 0.0	 0.0	 0.0	 0.0	 0.0	 0.0;
	277	 70.0	 40.2687	 42.0	 0.0	 1.0	 84.0	 1	 70.0	 66.5	 0.0	 0.0	 0.0	 0.0	 0.0	 0.0	 0.0	 0.0	 0.0	 0.0	 0.0;
	278	 60.0	 12.5429	 40.0	 0.0	 1.0	 72.0	 1	 60.0	 57.0	 0.0	 0.0	 0.0	 0.0	 0.0	 0.0	 0.0	 0.0	 0.0	 0.0	 0.0;
	279	 60.0	 17.8785	 40.0	 0.0	 1.0	 72.0	 1	 60.0	 57.0	 0.0	 0.0	 0.0	 0.0	 0.0	 0.0	 0.0	 0.0	 0.0	 0.0	 0.0;
	281	 120.0	 34.0803	 90.0	 0.0	 1.0	 144.0	 1	 120.0	 114.0	 0.0	 0.0	 0.0	 0.0	 0.0	 0.0	 0.0	 0.0	 0.0	 0.0	 0.0;
	282	 40.0	 16.9838	 40.0	 0.0	 1.0	 48.0	 1	 40.0	 38.0	 0.0	 0.0	 0.0	 0.0	 0.0	 0.0	 0.0	 0.0	 0.0	 0.0	 0.0;
	289	 2.5	 3.0	 3.0	 0.0	 1.0	 3.0	 1	 2.5	 2.38	 0.0	 0.0	 0.0	 0.0	 0.0	 0.0	 0.0	 0.0	 0.0	 0.0	 0.0;
	294	 2.0	 1.0	 1.0	 0.0	 1.0	 2.0	 1	 2.0	 1.9	 0.0	 0.0	 0.0	 0.0	 0.0	 0.0	 0.0	 0.0	 0.0	 0.0	 0.0;
	314	 1.5	 1.0	 1.0	 0.0	 1.0	 2.0	 1	 1.5	 1.43	 0.0	 0.0	 0.0	 0.0	 0.0	 0.0	 0.0	 0.0	 0.0	 0.0	 0.0;
	328	 44.0	 19.2819	 21.0	 0.0	 1.0	 53.0	 1	 44.0	 41.8	 0.0	 0.0	 0.0	 0.0	 0.0	 0.0	 0.0	 0.0	 0.0	 0.0	 0.0;
	329	 44.0	 21.0	 21.0	 0.0	 1.0	 53.0	 1	 44.0	 41.8	 0.0	 0.0	 0.0	 0.0	 0.0	 0.0	 0.0	 0.0	 0.0	 0.0	 0.0;
	330	 44.0	 0.0	 21.0	 0.0	 1.0	 53.0	 1	 44.0	 41.8	 0.0	 0.0	 0.0	 0.0	 0.0	 0.0	 0.0	 0.0	 0.0	 0.0	 0.0;
	331	 43.0	 21.0	 21.0	 0.0	 1.0	 52.0	 1	 43.0	 40.85	 0.0	 0.0	 0.0	 0.0	 0.0	 0.0	 0.0	 0.0	 0.0	 0.0	 0.0;
	334	 1.5	 1.0	 1.0	 0.0	 1.0	 2.0	 1	 1.5	 1.43	 0.0	 0.0	 0.0	 0.0	 0.0	 0.0	 0.0	 0.0	 0.0	 0.0	 0.0;
	346	 200.0	 25.128	 120.0	 0.0	 1.0	 180.0	 1	 200.0	 70.0	 0.0	 0.0	 0.0	 0.0	 0.0	 0.0	 0.0	 0.0	 0.0	 0.0	 0.0;
	347	 10.0	 9.77566	 15.0	 0.0	 1.0	 12.0	 1	 10.0	 10.0	 0.0	 0.0	 0.0	 0.0	 0.0	 0.0	 0.0	 0.0	 0.0	 0.0	 0.0;
	359	 1.5	 1.0	 1.0	 0.0	 1.0	 2.0	 1	 1.5	 1.43	 0.0	 0.0	 0.0	 0.0	 0.0	 0.0	 0.0	 0.0	 0.0	 0.0	 0.0;
	365	 5.1	 3.0	 3.0	 0.0	 1.0	 6.0	 1	 5.1	 4.85	 0.0	 0.0	 0.0	 0.0	 0.0	 0.0	 0.0	 0.0	 0.0	 0.0	 0.0;
	382	 8.0	 5.0	 5.0	 0.0	 1.0	 10.0	 1	 8.0	 7.6	 0.0	 0.0	 0.0	 0.0	 0.0	 0.0	 0.0	 0.0	 0.0	 0.0	 0.0;
	383	 8.0	 5.0	 5.0	 0.0	 1.0	 10.0	 1	 8.0	 7.6	 0.0	 0.0	 0.0	 0.0	 0.0	 0.0	 0.0	 0.0	 0.0	 0.0	 0.0;
	385	 6.0	 4.0	 4.0	 0.0	 1.0	 7.0	 1	 6.0	 5.7	 0.0	 0.0	 0.0	 0.0	 0.0	 0.0	 0.0	 0.0	 0.0	 0.0	 0.0;
	390	 4.5	 3.0	 3.0	 0.0	 1.0	 5.0	 1	 4.5	 4.28	 0.0	 0.0	 0.0	 0.0	 0.0	 0.0	 0.0	 0.0	 0.0	 0.0	 0.0;
	395	 10.0	 5.15536	 8.0	 0.0	 1.0	 12.0	 1	 10.0	 9.5	 0.0	 0.0	 0.0	 0.0	 0.0	 0.0	 0.0	 0.0	 0.0	 0.0	 0.0;
	404	 3.0	 3.0	 3.0	 0.0	 1.0	 4.0	 1	 3.0	 2.85	 0.0	 0.0	 0.0	 0.0	 0.0	 0.0	 0.0	 0.0	 0.0	 0.0	 0.0;
	426	 3.2	 2.0	 2.0	 0.0	 1.0	 4.0	 1	 3.2	 3.04	 0.0	 0.0	 0.0	 0.0	 0.0	 0.0	 0.0	 0.0	 0.0	 0.0	 0.0;
	444	 1.0	 0.0	 1.0	 0.0	 1.0	 1.0	 1	 1.0	 0.95	 0.0	 0.0	 0.0	 0.0	 0.0	 0.0	 0.0	 0.0	 0.0	 0.0	 0.0;
	451	 4.5	 3.0	 3.0	 0.0	 1.0	 5.0	 1	 4.5	 4.28	 0.0	 0.0	 0.0	 0.0	 0.0	 0.0	 0.0	 0.0	 0.0	 0.0	 0.0;
	482	 1.0	 0.0	 1.0	 0.0	 1.0	 1.0	 1	 1.0	 0.95	 0.0	 0.0	 0.0	 0.0	 0.0	 0.0	 0.0	 0.0	 0.0	 0.0	 0.0;
	492	 2.0	 1.0	 1.0	 0.0	 1.0	 2.0	 1	 2.0	 1.9	 0.0	 0.0	 0.0	 0.0	 0.0	 0.0	 0.0	 0.0	 0.0	 0.0	 0.0;
	493	 234.0	 108.562	 130.0	 0.0	 1.0	 281.0	 1	 234.0	 222.3	 0.0	 0.0	 0.0	 0.0	 0.0	 0.0	 0.0	 0.0	 0.0	 0.0	 0.0;
	494	 234.0	 130.0	 130.0	 0.0	 1.0	 281.0	 1	 234.0	 222.3	 0.0	 0.0	 0.0	 0.0	 0.0	 0.0	 0.0	 0.0	 0.0	 0.0	 0.0;
	514	 115.0	 90.0	 90.0	 0.0	 1.0	 138.0	 1	 115.0	 109.25	 0.0	 0.0	 0.0	 0.0	 0.0	 0.0	 0.0	 0.0	 0.0	 0.0	 0.0;
	515	 115.0	 90.0	 90.0	 0.0	 1.0	 138.0	 1	 115.0	 109.25	 0.0	 0.0	 0.0	 0.0	 0.0	 0.0	 0.0	 0.0	 0.0	 0.0	 0.0;
	525	 6.0	 4.0	 4.0	 0.0	 1.0	 7.0	 1	 6.0	 5.7	 0.0	 0.0	 0.0	 0.0	 0.0	 0.0	 0.0	 0.0	 0.0	 0.0	 0.0;
	536	 6.0	 6.0	 6.0	 0.0	 1.0	 7.0	 1	 6.0	 5.7	 0.0	 0.0	 0.0	 0.0	 0.0	 0.0	 0.0	 0.0	 0.0	 0.0	 0.0;
	537	 3.5	 3.0	 3.0	 0.0	 1.0	 4.0	 1	 3.5	 3.33	 0.0	 0.0	 0.0	 0.0	 0.0	 0.0	 0.0	 0.0	 0.0	 0.0	 0.0;
	556	 2.7	 1.0	 1.0	 0.0	 1.0	 3.0	 1	 2.7	 2.57	 0.0	 0.0	 0.0	 0.0	 0.0	 0.0	 0.0	 0.0	 0.0	 0.0	 0.0;
	580	 1.6	 1.0	 1.0	 0.0	 1.0	 2.0	 1	 1.6	 1.52	 0.0	 0.0	 0.0	 0.0	 0.0	 0.0	 0.0	 0.0	 0.0	 0.0	 0.0;
	584	 2.7	 2.0	 2.0	 0.0	 1.0	 3.0	 1	 2.7	 2.57	 0.0	 0.0	 0.0	 0.0	 0.0	 0.0	 0.0	 0.0	 0.0	 0.0	 0.0;
	585	 4.0	 2.0	 2.0	 0.0	 1.0	 5.0	 1	 4.0	 3.8	 0.0	 0.0	 0.0	 0.0	 0.0	 0.0	 0.0	 0.0	 0.0	 0.0	 0.0;
	607	 0.8	 0.0	 0.0	 0.0	 1.0	 1.0	 1	 0.8	 0.76	 0.0	 0.0	 0.0	 0.0	 0.0	 0.0	 0.0	 0.0	 0.0	 0.0	 0.0;
	612	 152.955	 70.2917	 120.0	 0.0	 1.0	 256.0	 1	 200.0	 70.0	 0.0	 0.0	 0.0	 0.0	 0.0	 0.0	 0.0	 0.0	 0.0	 0.0	 0.0;
	613	 200.0	 94.9498	 120.0	 0.0	 1.0	 256.0	 1	 200.0	 70.0	 0.0	 0.0	 0.0	 0.0	 0.0	 0.0	 0.0	 0.0	 0.0	 0.0	 0.0;
	615	 1.4	 1.0	 1.0	 0.0	 1.0	 2.0	 1	 1.4	 1.33	 0.0	 0.0	 0.0	 0.0	 0.0	 0.0	 0.0	 0.0	 0.0	 0.0	 0.0;
	623	 7.6	 5.0	 5.0	 0.0	 1.0	 9.0	 1	 7.6	 7.22	 0.0	 0.0	 0.0	 0.0	 0.0	 0.0	 0.0	 0.0	 0.0	 0.0	 0.0;
	639	 9.6	 4.0	 4.0	 0.0	 1.0	 12.0	 1	 9.6	 9.12	 0.0	 0.0	 0.0	 0.0	 0.0	 0.0	 0.0	 0.0	 0.0	 0.0	 0.0;
	651	 4.7	 2.0	 2.0	 0.0	 1.0	 6.0	 1	 4.7	 4.47	 0.0	 0.0	 0.0	 0.0	 0.0	 0.0	 0.0	 0.0	 0.0	 0.0	 0.0;
	654	 1.4	 0.0	 1.0	 0.0	 1.0	 2.0	 1	 1.4	 1.33	 0.0	 0.0	 0.0	 0.0	 0.0	 0.0	 0.0	 0.0	 0.0	 0.0	 0.0;
	664	 6.2	 6.0	 6.0	 0.0	 1.0	 7.0	 1	 6.2	 5.89	 0.0	 0.0	 0.0	 0.0	 0.0	 0.0	 0.0	 0.0	 0.0	 0.0	 0.0;
	670	 2.7	 0.0	 2.0	 0.0	 1.0	 3.0	 1	 2.7	 2.57	 0.0	 0.0	 0.0	 0.0	 0.0	 0.0	 0.0	 0.0	 0.0	 0.0	 0.0;
	674	 1.0	 0.0	 0.0	 0.0	 1.0	 1.0	 1	 1.0	 0.95	 0.0	 0.0	 0.0	 0.0	 0.0	 0.0	 0.0	 0.0	 0.0	 0.0	 0.0;
	688	 70.0	 18.0507	 120.0	 0.0	 1.0	 242.0	 1	 202.0	 70.0	 0.0	 0.0	 0.0	 0.0	 0.0	 0.0	 0.0	 0.0	 0.0	 0.0	 0.0;
	692	 1.4	 1.0	 1.0	 0.0	 1.0	 2.0	 1	 1.4	 1.33	 0.0	 0.0	 0.0	 0.0	 0.0	 0.0	 0.0	 0.0	 0.0	 0.0	 0.0;
	699	 3.8	 0.0	 2.0	 0.0	 1.0	 5.0	 1	 3.8	 3.61	 0.0	 0.0	 0.0	 0.0	 0.0	 0.0	 0.0	 0.0	 0.0	 0.0	 0.0;
	712	 1.2	 1.0	 1.0	 0.0	 1.0	 1.0	 1	 1.2	 1.14	 0.0	 0.0	 0.0	 0.0	 0.0	 0.0	 0.0	 0.0	 0.0	 0.0	 0.0;
	730	 6.9	 0.0	 3.0	 0.0	 1.0	 8.0	 1	 6.9	 6.56	 0.0	 0.0	 0.0	 0.0	 0.0	 0.0	 0.0	 0.0	 0.0	 0.0	 0.0;
	732	 1.1	 0.0	 1.0	 0.0	 1.0	 1.0	 1	 1.1	 1.05	 0.0	 0.0	 0.0	 0.0	 0.0	 0.0	 0.0	 0.0	 0.0	 0.0	 0.0;
	735	 4.1	 2.0	 2.0	 0.0	 1.0	 5.0	 1	 4.1	 3.9	 0.0	 0.0	 0.0	 0.0	 0.0	 0.0	 0.0	 0.0	 0.0	 0.0	 0.0;
	740	 4.0	 0.0	 1.0	 0.0	 1.0	 5.0	 1	 4.0	 3.8	 0.0	 0.0	 0.0	 0.0	 0.0	 0.0	 0.0	 0.0	 0.0	 0.0	 0.0;
	744	 134.0	 0.0	 60.0	 0.0	 1.0	 161.0	 1	 134.0	 127.3	 0.0	 0.0	 0.0	 0.0	 0.0	 0.0	 0.0	 0.0	 0.0	 0.0	 0.0;
	754	 80.0	 0.56718	 30.0	 0.0	 1.0	 54.0	 1	 80.0	 10.0	 0.0	 0.0	 0.0	 0.0	 0.0	 0.0	 0.0	 0.0	 0.0	 0.0	 0.0;
	755	 85.0	 14.8352	 80.0	 0.0	 1.0	 110.0	 1	 250.0	 85.0	 0.0	 0.0	 0.0	 0.0	 0.0	 0.0	 0.0	 0.0	 0.0	 0.0	 0.0;
	760	 3.1	 2.0	 2.0	 0.0	 1.0	 4.0	 1	 3.1	 2.95	 0.0	 0.0	 0.0	 0.0	 0.0	 0.0	 0.0	 0.0	 0.0	 0.0	 0.0;
	766	 2.1	 1.0	 1.0	 0.0	 1.0	 3.0	 1	 2.1	 2.0	 0.0	 0.0	 0.0	 0.0	 0.0	 0.0	 0.0	 0.0	 0.0	 0.0	 0.0;
	784	 0.7	 0.0	 0.0	 0.0	 1.0	 1.0	 1	 0.7	 0.67	 0.0	 0.0	 0.0	 0.0	 0.0	 0.0	 0.0	 0.0	 0.0	 0.0	 0.0;
	790	 49.8	 35.0	 35.0	 35.0	 1.0	 60.0	 1	 49.8	 47.31	 0.0	 0.0	 0.0	 0.0	 0.0	 0.0	 0.0	 0.0	 0.0	 0.0	 0.0;
	795	 1.89	 1.0	 1.0	 1.0	 1.0	 2.0	 1	 1.89	 1.8	 0.0	 0.0	 0.0	 0.0	 0.0	 0.0	 0.0	 0.0	 0.0	 0.0	 0.0;
	798	 2.99	 3.0	 3.0	 3.0	 1.0	 4.0	 1	 2.99	 2.84	 0.0	 0.0	 0.0	 0.0	 0.0	 0.0	 0.0	 0.0	 0.0	 0.0	 0.0;
	814	 44.92	 16.1224	 42.0	 0.0	 1.0	 54.0	 1	 44.92	 42.67	 0.0	 0.0	 0.0	 0.0	 0.0	 0.0	 0.0	 0.0	 0.0	 0.0	 0.0;
	834	 55.0	 81.2873	 83.0	 0.0	 1.0	 110.0	 1	 55.0	 23.0	 0.0	 0.0	 0.0	 0.0	 0.0	 0.0	 0.0	 0.0	 0.0	 0.0	 0.0;
	878	 2.99	 0.0	 0.0	 0.0	 1.0	 4.0	 1	 2.99	 2.84	 0.0	 0.0	 0.0	 0.0	 0.0	 0.0	 0.0	 0.0	 0.0	 0.0	 0.0;
	884	 2.49	 0.0	 0.0	 0.0	 1.0	 3.0	 1	 2.49	 2.37	 0.0	 0.0	 0.0	 0.0	 0.0	 0.0	 0.0	 0.0	 0.0	 0.0	 0.0;
	892	 31.87	 34.124	 42.0	 6.0	 1.0	 38.0	 1	 31.87	 30.28	 0.0	 0.0	 0.0	 0.0	 0.0	 0.0	 0.0	 0.0	 0.0	 0.0	 0.0;
	895	 8.96	 7.0	 7.0	 7.0	 1.0	 11.0	 1	 8.96	 8.51	 0.0	 0.0	 0.0	 0.0	 0.0	 0.0	 0.0	 0.0	 0.0	 0.0	 0.0;
	901	 3.68	 2.0	 2.0	 2.0	 1.0	 4.0	 1	 3.68	 3.5	 0.0	 0.0	 0.0	 0.0	 0.0	 0.0	 0.0	 0.0	 0.0	 0.0	 0.0;
	910	 4.58	 3.0	 3.0	 3.0	 1.0	 6.0	 1	 4.58	 4.35	 0.0	 0.0	 0.0	 0.0	 0.0	 0.0	 0.0	 0.0	 0.0	 0.0	 0.0;
	911	 370.0	 59.1031	 224.0	 0.0	 1.0	 415.0	 1	 370.0	 280.0	 0.0	 0.0	 0.0	 0.0	 0.0	 0.0	 0.0	 0.0	 0.0	 0.0	 0.0;
	912	 370.0	 67.4296	 224.0	 0.0	 1.0	 415.0	 1	 370.0	 280.0	 0.0	 0.0	 0.0	 0.0	 0.0	 0.0	 0.0	 0.0	 0.0	 0.0	 0.0;
	914	 15.93	 10.0	 10.0	 10.0	 1.0	 19.0	 1	 15.93	 15.13	 0.0	 0.0	 0.0	 0.0	 0.0	 0.0	 0.0	 0.0	 0.0	 0.0	 0.0;
	917	 2.09	 0.0	 0.0	 0.0	 1.0	 3.0	 1	 2.09	 1.99	 0.0	 0.0	 0.0	 0.0	 0.0	 0.0	 0.0	 0.0	 0.0	 0.0	 0.0;
	919	 21.91	 12.0	 12.0	 12.0	 1.0	 26.0	 1	 21.91	 20.81	 0.0	 0.0	 0.0	 0.0	 0.0	 0.0	 0.0	 0.0	 0.0	 0.0	 0.0;
	920	 1.99	 0.0	 0.0	 0.0	 1.0	 2.0	 1	 1.99	 1.89	 0.0	 0.0	 0.0	 0.0	 0.0	 0.0	 0.0	 0.0	 0.0	 0.0	 0.0;
	929	 63.73	 32.3057	 50.0	 29.0	 1.0	 77.0	 1	 63.73	 60.54	 0.0	 0.0	 0.0	 0.0	 0.0	 0.0	 0.0	 0.0	 0.0	 0.0	 0.0;
	959	 2.49	 1.0	 1.0	 1.0	 1.0	 3.0	 1	 2.49	 2.37	 0.0	 0.0	 0.0	 0.0	 0.0	 0.0	 0.0	 0.0	 0.0	 0.0	 0.0;
	968	 0.7	 0.0	 0.0	 0.0	 1.0	 1.0	 1	 0.7	 0.67	 0.0	 0.0	 0.0	 0.0	 0.0	 0.0	 0.0	 0.0	 0.0	 0.0	 0.0;
	993	 3.98	 1.0	 1.0	 1.0	 1.0	 5.0	 1	 3.98	 3.78	 0.0	 0.0	 0.0	 0.0	 0.0	 0.0	 0.0	 0.0	 0.0	 0.0	 0.0;
	994	 1.99	 1.0	 1.0	 1.0	 1.0	 2.0	 1	 1.99	 1.89	 0.0	 0.0	 0.0	 0.0	 0.0	 0.0	 0.0	 0.0	 0.0	 0.0	 0.0;
	995	 20.0	 38.0	 38.0	 0.0	 1.0	 60.0	 1	 100.0	 20.0	 0.0	 0.0	 0.0	 0.0	 0.0	 0.0	 0.0	 0.0	 0.0	 0.0	 0.0;
	996	 20.0	 12.3996	 38.0	 0.0	 1.0	 60.0	 1	 50.0	 20.0	 0.0	 0.0	 0.0	 0.0	 0.0	 0.0	 0.0	 0.0	 0.0	 0.0	 0.0;
	997	 20.0	 38.0	 38.0	 0.0	 1.0	 60.0	 1	 50.0	 20.0	 0.0	 0.0	 0.0	 0.0	 0.0	 0.0	 0.0	 0.0	 0.0	 0.0	 0.0;
	1004	 4.28	 3.0	 3.0	 3.0	 1.0	 5.0	 1	 4.28	 4.07	 0.0	 0.0	 0.0	 0.0	 0.0	 0.0	 0.0	 0.0	 0.0	 0.0	 0.0;
	1024	 0.1	 0.0	 0.0	 0.0	 1.0	 0.0	 1	 0.1	 0.1	 0.0	 0.0	 0.0	 0.0	 0.0	 0.0	 0.0	 0.0	 0.0	 0.0	 0.0;
	1027	 24.9	 13.0	 13.0	 13.0	 1.0	 30.0	 1	 24.9	 23.66	 0.0	 0.0	 0.0	 0.0	 0.0	 0.0	 0.0	 0.0	 0.0	 0.0	 0.0;
	1028	 2.99	 3.0	 3.0	 3.0	 1.0	 4.0	 1	 2.99	 2.84	 0.0	 0.0	 0.0	 0.0	 0.0	 0.0	 0.0	 0.0	 0.0	 0.0	 0.0;
	1029	 24.9	 14.0	 14.0	 14.0	 1.0	 30.0	 1	 24.9	 23.66	 0.0	 0.0	 0.0	 0.0	 0.0	 0.0	 0.0	 0.0	 0.0	 0.0	 0.0;
	1053	 59.76	 30.2709	 53.0	 0.0	 1.0	 72.0	 1	 59.76	 56.77	 0.0	 0.0	 0.0	 0.0	 0.0	 0.0	 0.0	 0.0	 0.0	 0.0	 0.0;
	1054	 29.88	 31.0	 31.0	 0.0	 1.0	 36.0	 1	 29.88	 28.39	 0.0	 0.0	 0.0	 0.0	 0.0	 0.0	 0.0	 0.0	 0.0	 0.0	 0.0;
	1105	 7.97	 10.0	 10.0	 10.0	 1.0	 10.0	 1	 7.97	 7.57	 0.0	 0.0	 0.0	 0.0	 0.0	 0.0	 0.0	 0.0	 0.0	 0.0	 0.0;
	1106	 22.91	 13.0	 13.0	 13.0	 1.0	 28.0	 1	 22.91	 21.76	 0.0	 0.0	 0.0	 0.0	 0.0	 0.0	 0.0	 0.0	 0.0	 0.0	 0.0;
	1107	 10.56	 3.0	 3.0	 3.0	 1.0	 13.0	 1	 10.56	 10.03	 0.0	 0.0	 0.0	 0.0	 0.0	 0.0	 0.0	 0.0	 0.0	 0.0	 0.0;
	1138	 44.82	 41.0	 41.0	 0.0	 1.0	 54.0	 1	 44.82	 42.58	 0.0	 0.0	 0.0	 0.0	 0.0	 0.0	 0.0	 0.0	 0.0	 0.0	 0.0;
	1140	 230.0	 66.7193	 199.0	 -87.0	 1.0	 252.0	 1	 230.0	 70.0	 0.0	 0.0	 0.0	 0.0	 0.0	 0.0	 0.0	 0.0	 0.0	 0.0	 0.0;
	1141	 94.917	 48.8205	 190.0	 -89.0	 1.0	 251.0	 1	 225.0	 70.0	 0.0	 0.0	 0.0	 0.0	 0.0	 0.0	 0.0	 0.0	 0.0	 0.0	 0.0;
	1175	 37.84	 20.0	 20.0	 20.0	 1.0	 45.0	 1	 37.84	 35.95	 0.0	 0.0	 0.0	 0.0	 0.0	 0.0	 0.0	 0.0	 0.0	 0.0	 0.0;
	1182	 40.0	 12.325	 125.0	 -50.0	 1.0	 133.0	 1	 120.0	 40.0	 0.0	 0.0	 0.0	 0.0	 0.0	 0.0	 0.0	 0.0	 0.0	 0.0	 0.0;
	1183	 120.0	 19.5012	 125.0	 -50.0	 1.0	 133.0	 1	 120.0	 40.0	 0.0	 0.0	 0.0	 0.0	 0.0	 0.0	 0.0	 0.0	 0.0	 0.0	 0.0;
	1184	 120.0	 61.2682	 125.0	 -50.0	 1.0	 133.0	 1	 120.0	 40.0	 0.0	 0.0	 0.0	 0.0	 0.0	 0.0	 0.0	 0.0	 0.0	 0.0	 0.0;
	1191	 106.56	 23.6932	 129.0	 -47.0	 1.0	 128.0	 1	 106.56	 101.23	 0.0	 0.0	 0.0	 0.0	 0.0	 0.0	 0.0	 0.0	 0.0	 0.0	 0.0;
	1192	 250.0	 69.2945	 125.0	 -50.0	 1.0	 123.0	 1	 250.0	 80.0	 0.0	 0.0	 0.0	 0.0	 0.0	 0.0	 0.0	 0.0	 0.0	 0.0	 0.0;
	1201	 99.59	 0.0	 90.0	 0.0	 1.0	 120.0	 1	 99.59	 94.61	 0.0	 0.0	 0.0	 0.0	 0.0	 0.0	 0.0	 0.0	 0.0	 0.0	 0.0;
	1202	 99.59	 71.827	 90.0	 0.0	 1.0	 120.0	 1	 99.59	 94.61	 0.0	 0.0	 0.0	 0.0	 0.0	 0.0	 0.0	 0.0	 0.0	 0.0	 0.0;
	1203	 99.59	 44.4643	 90.0	 0.0	 1.0	 120.0	 1	 99.59	 94.61	 0.0	 0.0	 0.0	 0.0	 0.0	 0.0	 0.0	 0.0	 0.0	 0.0	 0.0;
	1232	 51.79	 25.1424	 41.0	 0.0	 1.0	 62.0	 1	 51.79	 49.2	 0.0	 0.0	 0.0	 0.0	 0.0	 0.0	 0.0	 0.0	 0.0	 0.0	 0.0;
	1233	 14.94	 19.5029	 41.0	 0.0	 1.0	 18.0	 1	 14.94	 14.19	 0.0	 0.0	 0.0	 0.0	 0.0	 0.0	 0.0	 0.0	 0.0	 0.0	 0.0;
	1244	 18.92	 20.0	 20.0	 20.0	 1.0	 23.0	 1	 18.92	 17.97	 0.0	 0.0	 0.0	 0.0	 0.0	 0.0	 0.0	 0.0	 0.0	 0.0	 0.0;
	1247	 15.93	 12.0	 12.0	 12.0	 1.0	 19.0	 1	 15.93	 15.13	 0.0	 0.0	 0.0	 0.0	 0.0	 0.0	 0.0	 0.0	 0.0	 0.0	 0.0;
	1250	 197.19	 65.5075	 151.0	 0.0	 1.0	 237.0	 1	 197.19	 187.33	 0.0	 0.0	 0.0	 0.0	 0.0	 0.0	 0.0	 0.0	 0.0	 0.0	 0.0;
	1268	 0.5	 0.0	 0.0	 0.0	 1.0	 1.0	 1	 0.5	 0.48	 0.0	 0.0	 0.0	 0.0	 0.0	 0.0	 0.0	 0.0	 0.0	 0.0	 0.0;
	1316	 1.0	 0.0	 0.0	 0.0	 1.0	 1.0	 1	 1.0	 0.95	 0.0	 0.0	 0.0	 0.0	 0.0	 0.0	 0.0	 0.0	 0.0	 0.0	 0.0;
	1325	 1.39	 0.0	 0.0	 0.0	 1.0	 2.0	 1	 1.39	 1.32	 0.0	 0.0	 0.0	 0.0	 0.0	 0.0	 0.0	 0.0	 0.0	 0.0	 0.0;
	1349	 1.49	 0.0	 0.0	 0.0	 1.0	 2.0	 1	 1.49	 1.42	 0.0	 0.0	 0.0	 0.0	 0.0	 0.0	 0.0	 0.0	 0.0	 0.0	 0.0;
	1356	 1.0	 2.0	 2.0	 2.0	 1.0	 1.0	 1	 1.0	 0.95	 0.0	 0.0	 0.0	 0.0	 0.0	 0.0	 0.0	 0.0	 0.0	 0.0	 0.0;
	1359	 0.8	 1.0	 1.0	 1.0	 1.0	 1.0	 1	 0.8	 0.76	 0.0	 0.0	 0.0	 0.0	 0.0	 0.0	 0.0	 0.0	 0.0	 0.0	 0.0;
	1393	 12.75	 0.0	 11.0	 0.0	 1.0	 15.0	 1	 12.75	 12.11	 0.0	 0.0	 0.0	 0.0	 0.0	 0.0	 0.0	 0.0	 0.0	 0.0	 0.0;
	1403	 4.28	 1.0	 1.0	 1.0	 1.0	 5.0	 1	 4.28	 4.07	 0.0	 0.0	 0.0	 0.0	 0.0	 0.0	 0.0	 0.0	 0.0	 0.0	 0.0;
	1416	 371.0	 29.1325	 180.0	 10.0	 1.0	 246.0	 1	 371.0	 80.0	 0.0	 0.0	 0.0	 0.0	 0.0	 0.0	 0.0	 0.0	 0.0	 0.0	 0.0;
	1417	 120.0	 34.9276	 120.0	 5.0	 1.0	 123.0	 1	 120.0	 80.0	 0.0	 0.0	 0.0	 0.0	 0.0	 0.0	 0.0	 0.0	 0.0	 0.0	 0.0;
	1418	 20.0	 32.5842	 90.0	 5.0	 1.0	 123.0	 1	 20.0	 5.0	 0.0	 0.0	 0.0	 0.0	 0.0	 0.0	 0.0	 0.0	 0.0	 0.0	 0.0;
	1426	 495.0	 38.8902	 68.0	 27.0	 1.0	 106.0	 1	 495.0	 20.0	 0.0	 0.0	 0.0	 0.0	 0.0	 0.0	 0.0	 0.0	 0.0	 0.0	 0.0;
	1429	 0.2	 0.0	 0.0	 0.0	 1.0	 0.0	 1	 0.2	 0.19	 0.0	 0.0	 0.0	 0.0	 0.0	 0.0	 0.0	 0.0	 0.0	 0.0	 0.0;
	1469	 0.6	 0.0	 0.0	 0.0	 1.0	 1.0	 1	 0.6	 0.57	 0.0	 0.0	 0.0	 0.0	 0.0	 0.0	 0.0	 0.0	 0.0	 0.0	 0.0;
	1475	 2.09	 2.0	 2.0	 2.0	 1.0	 3.0	 1	 2.09	 1.99	 0.0	 0.0	 0.0	 0.0	 0.0	 0.0	 0.0	 0.0	 0.0	 0.0	 0.0;
	1504	 31.17	 2.0	 2.0	 2.0	 1.0	 37.0	 1	 31.17	 29.61	 0.0	 0.0	 0.0	 0.0	 0.0	 0.0	 0.0	 0.0	 0.0	 0.0	 0.0;
	1505	 48.8	 4.0	 4.0	 4.0	 1.0	 59.0	 1	 48.8	 46.36	 0.0	 0.0	 0.0	 0.0	 0.0	 0.0	 0.0	 0.0	 0.0	 0.0	 0.0;
	1514	 2.29	 1.0	 1.0	 1.0	 1.0	 3.0	 1	 2.29	 2.18	 0.0	 0.0	 0.0	 0.0	 0.0	 0.0	 0.0	 0.0	 0.0	 0.0	 0.0;
	1534	 0.3	 0.0	 0.0	 0.0	 1.0	 0.0	 1	 0.3	 0.29	 0.0	 0.0	 0.0	 0.0	 0.0	 0.0	 0.0	 0.0	 0.0	 0.0	 0.0;
	1536	 160.0	 45.7739	 190.0	 -89.0	 1.0	 251.0	 1	 225.0	 160.0	 0.0	 0.0	 0.0	 0.0	 0.0	 0.0	 0.0	 0.0	 0.0	 0.0	 0.0;
	1537	 225.0	 71.9112	 203.0	 -95.0	 1.0	 255.0	 1	 225.0	 160.0	 0.0	 0.0	 0.0	 0.0	 0.0	 0.0	 0.0	 0.0	 0.0	 0.0	 0.0;
	1538	 215.0	 40.2171	 190.0	 -89.0	 1.0	 255.0	 1	 215.0	 70.0	 0.0	 0.0	 0.0	 0.0	 0.0	 0.0	 0.0	 0.0	 0.0	 0.0	 0.0;
	1542	 8.96	 3.0	 3.0	 3.0	 1.0	 11.0	 1	 8.96	 8.51	 0.0	 0.0	 0.0	 0.0	 0.0	 0.0	 0.0	 0.0	 0.0	 0.0	 0.0;
	1543	 1.2	 0.0	 0.0	 0.0	 1.0	 1.0	 1	 1.2	 1.14	 0.0	 0.0	 0.0	 0.0	 0.0	 0.0	 0.0	 0.0	 0.0	 0.0	 0.0;
	1550	 1.79	 1.0	 1.0	 1.0	 1.0	 2.0	 1	 1.79	 1.7	 0.0	 0.0	 0.0	 0.0	 0.0	 0.0	 0.0	 0.0	 0.0	 0.0	 0.0;
	1566	 54.77	 22.117	 47.0	 20.0	 1.0	 66.0	 1	 54.77	 52.03	 0.0	 0.0	 0.0	 0.0	 0.0	 0.0	 0.0	 0.0	 0.0	 0.0	 0.0;
	1587	 63.74	 27.0	 27.0	 27.0	 1.0	 77.0	 1	 63.74	 60.55	 0.0	 0.0	 0.0	 0.0	 0.0	 0.0	 0.0	 0.0	 0.0	 0.0	 0.0;
	1600	 17.43	 3.0	 3.0	 3.0	 1.0	 21.0	 1	 17.43	 16.56	 0.0	 0.0	 0.0	 0.0	 0.0	 0.0	 0.0	 0.0	 0.0	 0.0	 0.0;
	1602	 120.0	 18.6395	 90.0	 0.0	 1.0	 144.0	 1	 120.0	 40.0	 0.0	 0.0	 0.0	 0.0	 0.0	 0.0	 0.0	 0.0	 0.0	 0.0	 0.0;
	1603	 120.0	 58.0213	 90.0	 0.0	 1.0	 144.0	 1	 120.0	 40.0	 0.0	 0.0	 0.0	 0.0	 0.0	 0.0	 0.0	 0.0	 0.0	 0.0	 0.0;
	1609	 0.3	 0.0	 0.0	 0.0	 1.0	 0.0	 1	 0.3	 0.29	 0.0	 0.0	 0.0	 0.0	 0.0	 0.0	 0.0	 0.0	 0.0	 0.0	 0.0;
	1617	 2.0	 0.0	 0.0	 0.0	 1.0	 2.0	 1	 2.0	 1.9	 0.0	 0.0	 0.0	 0.0	 0.0	 0.0	 0.0	 0.0	 0.0	 0.0	 0.0;
	1620	 1.6	 0.0	 0.0	 0.0	 1.0	 2.0	 1	 1.6	 1.52	 0.0	 0.0	 0.0	 0.0	 0.0	 0.0	 0.0	 0.0	 0.0	 0.0	 0.0;
...
];

%% generator cost data
%	2	startup	shutdown	n	c(n-1)	...	c0
mpc.gencost = [
	2	 0.0	 0.0	 3	   0.000000	 117.950000	   0.000000;
	2	 0.0	 0.0	 3	   0.000000	  48.890000	   0.000000;
	2	 0.0	 0.0	 3	   0.000000	  98.470000	   0.000000;
	2	 0.0	 0.0	 3	   0.000000	 128.730000	   0.000000;
	2	 0.0	 0.0	 3	   0.000000	 158.230000	   0.000000;
	2	 0.0	 0.0	 3	   0.000000	 165.620000	   0.000000;
	2	 0.0	 0.0	 3	   0.000000	  71.220000	   0.000000;
	2	 0.0	 0.0	 3	   0.000000	 102.250000	   0.000000;
	2	 0.0	 0.0	 3	   0.000000	 147.830000	   0.000000;
	2	 0.0	 0.0	 3	   0.000000	  75.370000	   0.000000;
	2	 0.0	 0.0	 3	   0.000000	  86.010000	   0.000000;
	2	 0.0	 0.0	 3	   0.000000	   0.000000	   0.000000;
	2	 0.0	 0.0	 3	   0.000000	  68.740000	   0.000000;
	2	 0.0	 0.0	 3	   0.000000	  81.910000	   0.000000;
	2	 0.0	 0.0	 3	   0.000000	  81.880000	   0.000000;
	2	 0.0	 0.0	 3	   0.000000	  58.780000	   0.000000;
	2	 0.0	 0.0	 3	   0.000000	  85.570000	   0.000000;
	2	 0.0	 0.0	 3	   0.000000	 101.380000	   0.000000;
	2	 0.0	 0.0	 3	   0.000000	 122.430000	   0.000000;
	2	 0.0	 0.0	 3	   0.000000	  96.620000	   0.000000;
	2	 0.0	 0.0	 3	   0.000000	 106.730000	   0.000000;
	2	 0.0	 0.0	 3	   0.000000	   0.000000	   0.000000;
	2	 0.0	 0.0	 3	   0.000000	 151.940000	   0.000000;
	2	 0.0	 0.0	 3	   0.000000	 107.510000	   0.000000;
	2	 0.0	 0.0	 3	   0.000000	 103.530000	   0.000000;
	2	 0.0	 0.0	 3	   0.000000	   0.000000	   0.000000;
	2	 0.0	 0.0	 3	   0.000000	   0.000000	   0.000000;
	2	 0.0	 0.0	 3	   0.000000	 136.480000	   0.000000;
	2	 0.0	 0.0	 3	   0.000000	 157.460000	   0.000000;
	2	 0.0	 0.0	 3	   0.000000	  83.970000	   0.000000;
	2	 0.0	 0.0	 3	   0.000000	 170.740000	   0.000000;
	2	 0.0	 0.0	 3	   0.000000	  80.910000	   0.000000;
	2	 0.0	 0.0	 3	   0.000000	 147.600000	   0.000000;
	2	 0.0	 0.0	 3	   0.000000	 158.750000	   0.000000;
	2	 0.0	 0.0	 3	   0.000000	 146.940000	   0.000000;
	2	 0.0	 0.0	 3	   0.000000	  96.320000	   0.000000;
	2	 0.0	 0.0	 3	   0.000000	   0.000000	   0.000000;
	2	 0.0	 0.0	 3	   0.000000	   0.000000	   0.000000;
	2	 0.0	 0.0	 3	   0.000000	   0.000000	   0.000000;
	2	 0.0	 0.0	 3	   0.000000	   0.000000	   0.000000;
	2	 0.0	 0.0	 3	   0.000000	   0.000000	   0.000000;
	2	 0.0	 0.0	 3	   0.000000	   0.000000	   0.000000;
	2	 0.0	 0.0	 3	   0.000000	   0.000000	   0.000000;
	2	 0.0	 0.0	 3	   0.000000	   0.000000	   0.000000;
	2	 0.0	 0.0	 3	   0.000000	   0.000000	   0.000000;
	2	 0.0	 0.0	 3	   0.000000	   0.000000	   0.000000;
	2	 0.0	 0.0	 3	   0.000000	   0.000000	   0.000000;
	2	 0.0	 0.0	 3	   0.000000	   0.000000	   0.000000;
	2	 0.0	 0.0	 3	   0.000000	   0.000000	   0.000000;
	2	 0.0	 0.0	 3	   0.000000	   0.000000	   0.000000;
	2	 0.0	 0.0	 3	   0.000000	   0.000000	   0.000000;
	2	 0.0	 0.0	 3	   0.000000	   0.000000	   0.000000;
	2	 0.0	 0.0	 3	   0.000000	   0.000000	   0.000000;
	2	 0.0	 0.0	 3	   0.000000	   0.000000	   0.000000;
	2	 0.0	 0.0	 3	   0.000000	   0.000000	   0.000000;
	2	 0.0	 0.0	 3	   0.000000	   0.000000	   0.000000;
	2	 0.0	 0.0	 3	   0.000000	   0.000000	   0.000000;
	2	 0.0	 0.0	 3	   0.000000	   0.000000	   0.000000;
	2	 0.0	 0.0	 3	   0.000000	   0.000000	   0.000000;
	2	 0.0	 0.0	 3	   0.000000	   0.000000	   0.000000;
	2	 0.0	 0.0	 3	   0.000000	   0.000000	   0.000000;
	2	 0.0	 0.0	 3	   0.000000	   0.000000	   0.000000;
	2	 0.0	 0.0	 3	   0.000000	   0.000000	   0.000000;
	2	 0.0	 0.0	 3	   0.000000	   0.000000	   0.000000;
	2	 0.0	 0.0	 3	   0.000000	 134.980000	   0.000000;
	2	 0.0	 0.0	 3	   0.000000	   0.000000	   0.000000;
	2	 0.0	 0.0	 3	   0.000000	   0.000000	   0.000000;
	2	 0.0	 0.0	 3	   0.000000	   0.000000	   0.000000;
	2	 0.0	 0.0	 3	   0.000000	   0.000000	   0.000000;
	2	 0.0	 0.0	 3	   0.000000	   0.000000	   0.000000;
	2	 0.0	 0.0	 3	   0.000000	   0.000000	   0.000000;
	2	 0.0	 0.0	 3	   0.000000	   0.000000	   0.000000;
	2	 0.0	 0.0	 3	   0.000000	   0.000000	   0.000000;
	2	 0.0	 0.0	 3	   0.000000	   0.000000	   0.000000;
	2	 0.0	 0.0	 3	   0.000000	   0.000000	   0.000000;
	2	 0.0	 0.0	 3	   0.000000	   0.000000	   0.000000;
	2	 0.0	 0.0	 3	   0.000000	   0.000000	   0.000000;
	2	 0.0	 0.0	 3	   0.000000	   0.000000	   0.000000;
	2	 0.0	 0.0	 3	   0.000000	   0.000000	   0.000000;
	2	 0.0	 0.0	 3	   0.000000	   0.000000	   0.000000;
	2	 0.0	 0.0	 3	   0.000000	   0.000000	   0.000000;
	2	 0.0	 0.0	 3	   0.000000	   0.000000	   0.000000;
	2	 0.0	 0.0	 3	   0.000000	   0.000000	   0.000000;
	2	 0.0	 0.0	 3	   0.000000	   0.000000	   0.000000;
	2	 0.0	 0.0	 3	   0.000000	   0.000000	   0.000000;
	2	 0.0	 0.0	 3	   0.000000	   0.000000	   0.000000;
	2	 0.0	 0.0	 3	   0.000000	   0.000000	   0.000000;
	2	 0.0	 0.0	 3	   0.000000	   0.000000	   0.000000;
	2	 0.0	 0.0	 3	   0.000000	   0.000000	   0.000000;
	2	 0.0	 0.0	 3	   0.000000	   0.000000	   0.000000;
	2	 0.0	 0.0	 3	   0.000000	   0.000000	   0.000000;
	2	 0.0	 0.0	 3	   0.000000	 142.940000	   0.000000;
	2	 0.0	 0.0	 3	   0.000000	 128.220000	   0.000000;
	2	 0.0	 0.0	 3	   0.000000	   0.000000	   0.000000;
	2	 0.0	 0.0	 3	   0.000000	   0.000000	   0.000000;
	2	 0.0	 0.0	 3	   0.000000	   0.000000	   0.000000;
	2	 0.0	 0.0	 3	   0.000000	   0.000000	   0.000000;
	2	 0.0	 0.0	 3	   0.000000	   0.000000	   0.000000;
	2	 0.0	 0.0	 3	   0.000000	   0.000000	   0.000000;
	2	 0.0	 0.0	 3	   0.000000	   0.000000	   0.000000;
	2	 0.0	 0.0	 3	   0.000000	   0.000000	   0.000000;
	2	 0.0	 0.0	 3	   0.000000	 141.730000	   0.000000;
	2	 0.0	 0.0	 3	   0.000000	   0.000000	   0.000000;
	2	 0.0	 0.0	 3	   0.000000	   0.000000	   0.000000;
	2	 0.0	 0.0	 3	   0.000000	   0.000000	   0.000000;
	2	 0.0	 0.0	 3	   0.000000	   0.000000	   0.000000;
	2	 0.0	 0.0	 3	   0.000000	   0.000000	   0.000000;
	2	 0.0	 0.0	 3	   0.000000	   0.000000	   0.000000;
	2	 0.0	 0.0	 3	   0.000000	   0.000000	   0.000000;
	2	 0.0	 0.0	 3	   0.000000	   0.000000	   0.000000;
	2	 0.0	 0.0	 3	   0.000000	 100.820000	   0.000000;
	2	 0.0	 0.0	 3	   0.000000	 151.900000	   0.000000;
	2	 0.0	 0.0	 3	   0.000000	   0.000000	   0.000000;
	2	 0.0	 0.0	 3	   0.000000	   0.000000	   0.000000;
	2	 0.0	 0.0	 3	   0.000000	   0.000000	   0.000000;
	2	 0.0	 0.0	 3	   0.000000	   0.000000	   0.000000;
	2	 0.0	 0.0	 3	   0.000000	   0.000000	   0.000000;
	2	 0.0	 0.0	 3	   0.000000	   0.000000	   0.000000;
	2	 0.0	 0.0	 3	   0.000000	   0.000000	   0.000000;
	2	 0.0	 0.0	 3	   0.000000	 114.150000	   0.000000;
	2	 0.0	 0.0	 3	   0.000000	   0.000000	   0.000000;
	2	 0.0	 0.0	 3	   0.000000	   0.000000	   0.000000;
	2	 0.0	 0.0	 3	   0.000000	   0.000000	   0.000000;
	2	 0.0	 0.0	 3	   0.000000	   0.000000	   0.000000;
	2	 0.0	 0.0	 3	   0.000000	   0.000000	   0.000000;
	2	 0.0	 0.0	 3	   0.000000	   0.000000	   0.000000;
	2	 0.0	 0.0	 3	   0.000000	  87.950000	   0.000000;
	2	 0.0	 0.0	 3	   0.000000	 130.250000	   0.000000;
	2	 0.0	 0.0	 3	   0.000000	   0.000000	   0.000000;
	2	 0.0	 0.0	 3	   0.000000	   0.000000	   0.000000;
	2	 0.0	 0.0	 3	   0.000000	   0.000000	   0.000000;
	2	 0.0	 0.0	 3	   0.000000	   0.000000	   0.000000;
	2	 0.0	 0.0	 3	   0.000000	   0.000000	   0.000000;
	2	 0.0	 0.0	 3	   0.000000	   0.000000	   0.000000;
	2	 0.0	 0.0	 3	   0.000000	   0.000000	   0.000000;
	2	 0.0	 0.0	 3	   0.000000	   0.000000	   0.000000;
	2	 0.0	 0.0	 3	   0.000000	   0.000000	   0.000000;
	2	 0.0	 0.0	 3	   0.000000	 145.970000	   0.000000;
	2	 0.0	 0.0	 3	   0.000000	 137.580000	   0.000000;
	2	 0.0	 0.0	 3	   0.000000	 147.360000	   0.000000;
	2	 0.0	 0.0	 3	   0.000000	   0.000000	   0.000000;
	2	 0.0	 0.0	 3	   0.000000	   0.000000	   0.000000;
	2	 0.0	 0.0	 3	   0.000000	   0.000000	   0.000000;
	2	 0.0	 0.0	 3	   0.000000	   0.000000	   0.000000;
	2	 0.0	 0.0	 3	   0.000000	   0.000000	   0.000000;
	2	 0.0	 0.0	 3	   0.000000	   0.000000	   0.000000;
	2	 0.0	 0.0	 3	   0.000000	   0.000000	   0.000000;
	2	 0.0	 0.0	 3	   0.000000	   0.000000	   0.000000;
	2	 0.0	 0.0	 3	   0.000000	   0.000000	   0.000000;
	2	 0.0	 0.0	 3	   0.000000	   0.000000	   0.000000;
	2	 0.0	 0.0	 3	   0.000000	   0.000000	   0.000000;
	2	 0.0	 0.0	 3	   0.000000	  82.920000	   0.000000;
	2	 0.0	 0.0	 3	   0.000000	 133.590000	   0.000000;
	2	 0.0	 0.0	 3	   0.000000	   0.000000	   0.000000;
	2	 0.0	 0.0	 3	   0.000000	 152.950000	   0.000000;
	2	 0.0	 0.0	 3	   0.000000	  67.350000	   0.000000;
	2	 0.0	 0.0	 3	   0.000000	 134.930000	   0.000000;
	2	 0.0	 0.0	 3	   0.000000	   0.000000	   0.000000;
	2	 0.0	 0.0	 3	   0.000000	  61.320000	   0.000000;
	2	 0.0	 0.0	 3	   0.000000	   0.000000	   0.000000;
	2	 0.0	 0.0	 3	   0.000000	   0.000000	   0.000000;
	2	 0.0	 0.0	 3	   0.000000	   0.000000	   0.000000;
	2	 0.0	 0.0	 3	   0.000000	   0.000000	   0.000000;
	2	 0.0	 0.0	 3	   0.000000	   0.000000	   0.000000;
	2	 0.0	 0.0	 3	   0.000000	   0.000000	   0.000000;
	2	 0.0	 0.0	 3	   0.000000	   0.000000	   0.000000;
	2	 0.0	 0.0	 3	   0.000000	   0.000000	   0.000000;
	2	 0.0	 0.0	 3	   0.000000	   0.000000	   0.000000;
	2	 0.0	 0.0	 3	   0.000000	   0.000000	   0.000000;
	2	 0.0	 0.0	 3	   0.000000	   0.000000	   0.000000;
	2	 0.0	 0.0	 3	   0.000000	   0.000000	   0.000000;
	2	 0.0	 0.0	 3	   0.000000	   0.000000	   0.000000;
	2	 0.0	 0.0	 3	   0.000000	   0.000000	   0.000000;
	2	 0.0	 0.0	 3	   0.000000	   0.000000	   0.000000;
	2	 0.0	 0.0	 3	   0.000000	   0.000000	   0.000000;
	2	 0.0	 0.0	 3	   0.000000	  61.400000	   0.000000;
	2	 0.0	 0.0	 3	   0.000000	 114.990000	   0.000000;
	2	 0.0	 0.0	 3	   0.000000	 122.640000	   0.000000;
	2	 0.0	 0.0	 3	   0.000000	 118.840000	   0.000000;
	2	 0.0	 0.0	 3	   0.000000	   0.000000	   0.000000;
	2	 0.0	 0.0	 3	   0.000000	   0.000000	   0.000000;
	2	 0.0	 0.0	 3	   0.000000	   0.000000	   0.000000;
	2	 0.0	 0.0	 3	   0.000000	   0.000000	   0.000000;
	2	 0.0	 0.0	 3	   0.000000	   0.000000	   0.000000;
	2	 0.0	 0.0	 3	   0.000000	   0.000000	   0.000000;
	2	 0.0	 0.0	 3	   0.000000	   0.000000	   0.000000;
	2	 0.0	 0.0	 3	   0.000000	 143.830000	   0.000000;
	2	 0.0	 0.0	 3	   0.000000	  67.480000	   0.000000;
	2	 0.0	 0.0	 3	   0.000000	  88.000000	   0.000000;
	2	 0.0	 0.0	 3	   0.000000	   0.000000	   0.000000;
	2	 0.0	 0.0	 3	   0.000000	   0.000000	   0.000000;
	2	 0.0	 0.0	 3	   0.000000	   0.000000	   0.000000;
	2	 0.0	 0.0	 3	   0.000000	   0.000000	   0.000000;
	2	 0.0	 0.0	 3	   0.000000	   0.000000	   0.000000;
	2	 0.0	 0.0	 3	   0.000000	   0.000000	   0.000000;
	2	 0.0	 0.0	 3	   0.000000	 129.860000	   0.000000;
	2	 0.0	 0.0	 3	   0.000000	 108.160000	   0.000000;
	2	 0.0	 0.0	 3	   0.000000	   0.000000	   0.000000;
	2	 0.0	 0.0	 3	   0.000000	   0.000000	   0.000000;
	2	 0.0	 0.0	 3	   0.000000	   0.000000	   0.000000;
...
];

%% branch data
%	fbus	tbus	r	x	b	rateA	rateB	rateC	ratio	angle	status	angmin	angmax
mpc.branch = [
	16	 1	 0.00155	 0.01169	 0.0182	 160.0	 160.0	 160.0	 0.0	 0.0	 1	 -30.0	 30.0;
	355	 1	 0.00157	 0.06612	 0.0	 160.0	 160.0	 160.0	 1.0099	 0.0	 1	 -30.0	 30.0;
	17	 2	 0.00155	 0.01169	 0.0182	 160.0	 160.0	 160.0	 0.0	 0.0	 1	 -30.0	 30.0;
	354	 2	 0.00157	 0.06612	 0.0	 160.0	 160.0	 160.0	 1.022	 0.0	 1	 -30.0	 30.0;
	10	 3	 0.01068	 0.07895	 0.1226	 274.0	 274.0	 274.0	 0.0	 0.0	 1	 -30.0	 30.0;
	219	 3	 0.00165	 0.06736	 0.0	 160.0	 160.0	 160.0	 1.027	 0.0	 1	 -30.0	 30.0;
	220	 3	 0.00165	 0.06736	 0.0	 160.0	 160.0	 160.0	 0.9955	 0.0	 1	 -30.0	 30.0;
	7	 4	 0.01674	 0.09711	 0.14423	 377.0	 377.0	 377.0	 0.0	 0.0	 1	 -30.0	 30.0;
	11	 4	 0.00293	 0.01599	 0.02478	 335.0	 335.0	 335.0	 0.0	 0.0	 1	 -30.0	 30.0;
	14	 4	 0.00442	 0.03223	 0.04985	 464.0	 464.0	 464.0	 0.0	 0.0	 1	 -30.0	 30.0;
	16	 4	 0.00888	 0.06665	 0.08896	 377.0	 377.0	 377.0	 0.0	 0.0	 1	 -30.0	 30.0;
	22	 4	 0.00783	 0.043	 0.04962	 350.0	 350.0	 350.0	 0.0	 0.0	 1	 -30.0	 30.0;
	245	 4	 0.00165	 0.06901	 0.0	 160.0	 160.0	 160.0	 1.0594	 0.0	 1	 -30.0	 30.0;
	246	 4	 0.00165	 0.06901	 0.0	 160.0	 160.0	 160.0	 1.0448	 0.0	 1	 -30.0	 30.0;
	5	 6	 0.00064	 0.0305	 0.0	 400.0	 400.0	 400.0	 1.0435	 -0.6	 1	 -30.0	 30.0;
	7	 5	 0.00525	 0.03988	 0.06195	 381.0	 381.0	 381.0	 0.0	 0.0	 1	 -30.0	 30.0;
	10	 5	 0.01459	 0.11219	 0.16553	 381.0	 381.0	 381.0	 0.0	 0.0	 1	 -30.0	 30.0;
	309	 5	 0.00165	 0.0686	 0.0	 160.0	 160.0	 160.0	 1.0646	 0.0	 1	 -30.0	 30.0;
	309	 5	 0.00165	 0.0686	 0.0	 160.0	 160.0	 160.0	 1.0523	 0.0	 1	 -30.0	 30.0;
	6	 8	 0.00112	 0.01329	 0.34125	 1316.0	 1316.0	 1316.0	 0.0	 0.0	 1	 -30.0	 30.0;
	6	 9	 0.00299	 0.03675	 0.9184	 1427.0	 1427.0	 1427.0	 0.0	 0.0	 1	 -30.0	 30.0;
	15	 6	 0.00298	 0.03417	 0.93504	 1427.0	 1427.0	 1427.0	 0.0	 0.0	 1	 -30.0	 30.0;
	31	 6	 0.0015	 0.01506	 0.4032	 1385.0	 1385.0	 1385.0	 0.0	 0.0	 1	 -30.0	 30.0;
	310	 6	 0.0015	 0.06188	 0.0	 250.0	 250.0	 250.0	 1.0613	 0.0	 1	 -30.0	 30.0;
	12	 7	 0.01211	 0.08742	 0.14017	 381.0	 381.0	 381.0	 0.0	 0.0	 1	 -30.0	 30.0;
	13	 7	 0.00205	 0.01326	 0.02243	 335.0	 335.0	 335.0	 0.0	 0.0	 1	 -30.0	 30.0;
	19	 7	 0.0057	 0.0407	 0.06021	 323.0	 323.0	 323.0	 0.0	 0.0	 1	 -30.0	 30.0;
	21	 7	 0.00093	 0.00651	 0.01113	 160.0	 160.0	 160.0	 0.0	 0.0	 1	 -30.0	 30.0;
	29	 7	 0.01269	 0.07498	 0.1302	 362.0	 362.0	 362.0	 0.0	 0.0	 1	 -30.0	 30.0;
	321	 7	 0.00041	 0.03368	 0.0	 250.0	 250.0	 250.0	 1.0323	 0.0	 1	 -30.0	 30.0;
	322	 7	 0.00165	 0.06775	 0.0	 160.0	 160.0	 160.0	 1.0569	 0.0	 1	 -30.0	 30.0;
	8	 18	 0.00336	 0.03977	 1.02163	 1316.0	 1316.0	 1316.0	 0.0	 0.0	 1	 -30.0	 30.0;
	332	 9	 0.00087	 0.05244	 -0.02144	 330.0	 330.0	 330.0	 1.0781	 0.0	 1	 -30.0	 30.0;
	171	 10	 0.01409	 0.10413	 0.15972	 464.0	 464.0	 464.0	 0.0	 0.0	 1	 -30.0	 30.0;
	346	 10	 0.00124	 0.06839	 0.0	 160.0	 160.0	 160.0	 1.0054	 0.0	 1	 -30.0	 30.0;
	347	 10	 0.00124	 0.06839	 0.0	 160.0	 160.0	 160.0	 1.024	 0.0	 1	 -30.0	 30.0;
	16	 11	 0.0057	 0.03952	 0.07553	 464.0	 464.0	 464.0	 0.0	 0.0	 1	 -30.0	 30.0;
	17	 11	 0.0057	 0.03952	 0.07553	 464.0	 464.0	 464.0	 0.0	 0.0	 1	 -30.0	 30.0;
	111	 11	 0.01068	 0.06196	 0.09496	 394.0	 394.0	 394.0	 0.0	 0.0	 1	 -30.0	 30.0;
	352	 11	 0.00165	 0.06901	 0.0	 160.0	 160.0	 160.0	 1.0412	 0.0	 1	 -30.0	 30.0;
	353	 11	 0.00165	 0.06901	 0.0	 160.0	 160.0	 160.0	 1.0559	 0.0	 1	 -30.0	 30.0;
	140	 12	 0.01465	 0.10589	 0.17085	 464.0	 464.0	 464.0	 0.0	 0.0	 1	 -30.0	 30.0;
	359	 12	 0.00155	 0.06612	 0.0	 160.0	 160.0	 160.0	 1.0395	 0.0	 1	 -30.0	 30.0;
	360	 12	 0.00157	 0.06612	 0.0	 160.0	 160.0	 160.0	 1.059	 0.0	 1	 -30.0	 30.0;
	29	 13	 0.01345	 0.08114	 0.14113	 339.0	 339.0	 339.0	 0.0	 0.0	 1	 -30.0	 30.0;
	365	 13	 0.00165	 0.06901	 0.0	 160.0	 160.0	 160.0	 1.0312	 0.0	 1	 -30.0	 30.0;
	366	 13	 0.00165	 0.06901	 0.0	 160.0	 160.0	 160.0	 0.9872	 0.0	 1	 -30.0	 30.0;
	17	 14	 0.00384	 0.02853	 0.04588	 464.0	 464.0	 464.0	 0.0	 0.0	 1	 -30.0	 30.0;
	367	 14	 0.00157	 0.06798	 0.0	 160.0	 160.0	 160.0	 1.0664	 0.0	 1	 -30.0	 30.0;
	368	 14	 0.00165	 0.06901	 0.0	 160.0	 160.0	 160.0	 1.0777	 0.0	 1	 -30.0	 30.0;
	18	 15	 0.00358	 0.04262	 1.0944	 1662.0	 1662.0	 1662.0	 0.0	 0.0	 1	 -30.0	 30.0;
	15	 165	 0.00207	 0.02474	 0.664	 831.0	 831.0	 831.0	 0.0	 0.0	 1	 -30.0	 30.0;
	374	 15	 0.0015	 0.06188	 0.0	 250.0	 250.0	 250.0	 1.1502	 0.0	 1	 -30.0	 30.0;
	16	 18	 0.00036	 0.02519	 0.0	 500.0	 500.0	 500.0	 1.0605	 0.0	 1	 -30.0	 30.0;
	16	 73	 0.00909	 0.0624	 0.11142	 464.0	 464.0	 464.0	 0.0	 0.0	 1	 -30.0	 30.0;
	17	 18	 0.00036	 0.02519	 0.0	 500.0	 500.0	 500.0	 1.0607	 0.0	 1	 -30.0	 30.0;
	17	 74	 0.00868	 0.06405	 0.09699	 464.0	 464.0	 464.0	 0.0	 0.0	 1	 -30.0	 30.0;
	20	 18	 0.00063	 0.00749	 0.39226	 1427.0	 1427.0	 1427.0	 0.0	 0.0	 1	 -30.0	 30.0;
	75	 18	 0.00219	 0.02369	 0.59584	 1434.0	 1434.0	 1434.0	 0.0	 0.0	 1	 -30.0	 30.0;
	18	 76	 0.00137	 0.01625	 0.41184	 1662.0	 1662.0	 1662.0	 0.0	 0.0	 1	 -30.0	 30.0;
	18	 101	 0.00231	 0.02769	 0.70144	 1662.0	 1662.0	 1662.0	 0.0	 0.0	 1	 -30.0	 30.0;
	124	 19	 0.01696	 0.12366	 0.19699	 464.0	 464.0	 464.0	 0.0	 0.0	 1	 -30.0	 30.0;
	425	 19	 0.00165	 0.06818	 0.0	 160.0	 160.0	 160.0	 1.0241	 0.0	 1	 -30.0	 30.0;
	67	 20	 0.00331	 0.03425	 0.85888	 831.0	 831.0	 831.0	 0.0	 0.0	 1	 -30.0	 30.0;
	447	 20	 0.00137	 0.06119	 -0.01504	 250.0	 250.0	 250.0	 1.0796	 0.0	 1	 -30.0	 30.0;
	448	 20	 0.00137	 0.06119	 -0.01504	 250.0	 250.0	 250.0	 1.0923	 0.0	 1	 -30.0	 30.0;
	502	 21	 0.00165	 0.07107	 0.0	 160.0	 160.0	 160.0	 0.9922	 0.0	 1	 -30.0	 30.0;
	112	 22	 0.00465	 0.02618	 0.02962	 362.0	 362.0	 362.0	 0.0	 0.0	 1	 -30.0	 30.0;
	526	 22	 0.00165	 0.06901	 0.0	 160.0	 160.0	 160.0	 1.0685	 0.0	 1	 -30.0	 30.0;
	527	 22	 0.00165	 0.06901	 0.0	 160.0	 160.0	 160.0	 1.0424	 0.0	 1	 -30.0	 30.0;
	37	 23	 0.01163	 0.07031	 0.1058	 394.0	 394.0	 394.0	 0.0	 0.0	 1	 -30.0	 30.0;
	46	 23	 0.00837	 0.04868	 0.07348	 457.0	 457.0	 457.0	 0.0	 0.0	 1	 -30.0	 30.0;
	53	 23	 0.01122	 0.06558	 0.09835	 274.0	 274.0	 274.0	 0.0	 0.0	 1	 -30.0	 30.0;
	540	 23	 0.0014	 0.0668	 0.0	 160.0	 160.0	 160.0	 1.0182	 0.0	 1	 -30.0	 30.0;
	54	 24	 0.00769	 0.05727	 0.08789	 160.0	 160.0	 160.0	 0.0	 0.0	 1	 -30.0	 30.0;
	545	 24	 0.00151	 0.06715	 0.0	 160.0	 160.0	 160.0	 1.0161	 0.0	 1	 -30.0	 30.0;
	41	 25	 0.00556	 0.04145	 0.0636	 274.0	 274.0	 274.0	 0.0	 0.0	 1	 -30.0	 30.0;
	53	 25	 0.00452	 0.03368	 0.05169	 464.0	 464.0	 464.0	 0.0	 0.0	 1	 -30.0	 30.0;
	54	 25	 0.00019	 0.0014	 0.00213	 464.0	 464.0	 464.0	 0.0	 0.0	 1	 -30.0	 30.0;
	564	 25	 0.00157	 0.07808	 0.0	 160.0	 160.0	 160.0	 1.0276	 0.0	 1	 -30.0	 30.0;
	38	 26	 0.00698	 0.05196	 0.07967	 160.0	 160.0	 160.0	 0.0	 0.0	 1	 -30.0	 30.0;
	568	 26	 0.00149	 0.06616	 0.0	 160.0	 160.0	 160.0	 1.013	 0.0	 1	 -30.0	 30.0;
	28	 27	 0.0	 0.0001	 0.0	 876.0	 876.0	 876.0	 0.0	 0.0	 1	 -30.0	 30.0;
	33	 27	 0.0024	 0.01494	 0.02253	 160.0	 160.0	 160.0	 0.0	 0.0	 1	 -30.0	 30.0;
	48	 27	 0.01213	 0.06215	 0.09371	 362.0	 362.0	 362.0	 0.0	 0.0	 1	 -30.0	 30.0;
	27	 74	 0.01116	 0.07231	 0.10367	 304.0	 304.0	 304.0	 0.0	 0.0	 1	 -30.0	 30.0;
	47	 28	 0.00248	 0.01798	 0.02759	 464.0	 464.0	 464.0	 0.0	 0.0	 1	 -30.0	 30.0;
...